** Generated by pufgen.py for: hspiceD
** Generated on: 07/24/18 12:39:51
** Design library name: pufLib
** Design cell name: puf_0
** Design view name: schematic

** Library name: pufLib
** Cell name: puf_0
** View name: schematic
.subckt puf_0 ch_0 ch_1 ch_2 ch_3 ch_4 ch_5 ch_6 ch_7 ch_8 ch_9 ch_10 ch_11 ch_12 ch_13 ch_14 ch_15 ch_16 ch_17 ch_18 ch_19 ch_20 ch_21 ch_22 ch_23 ch_24 ch_25 ch_26 ch_27 ch_28 ch_29 ch_30 ch_31 ch_32 ch_33 ch_34 ch_35 ch_36 ch_37 ch_38 ch_39 ch_40 ch_41 ch_42 ch_43 ch_44 ch_45 ch_46 ch_47 ch_48 ch_49 ch_50 ch_51 ch_52 ch_53 ch_54 ch_55 ch_56 ch_57 ch_58 ch_59 ch_60 ch_61 ch_62 ch_63 ch_64 ch_65 ch_66 ch_67 ch_68 ch_69 ch_70 ch_71 ch_72 ch_73 ch_74 ch_75 ch_76 ch_77 ch_78 ch_79 ch_80 ch_81 ch_82 ch_83 ch_84 ch_85 ch_86 ch_87 ch_88 ch_89 ch_90 ch_91 ch_92 ch_93 ch_94 ch_95 ch_96 ch_97 ch_98 ch_99 ch_100 ch_101 ch_102 ch_103 ch_104 ch_105 ch_106 ch_107 ch_108 ch_109 ch_110 ch_111 ch_112 ch_113 ch_114 ch_115 ch_116 ch_117 ch_118 ch_119 ch_120 ch_121 ch_122 ch_123 ch_124 ch_125 ch_126 ch_127 gnd in_sig q vdd
** 1 PUF stage
xi0 gnd in_sig in_sig ch_0 net2 net3 vdd puf_stage
** Vt parameters of the upper MUX2x1
+mup_inv_ppvth=-0.110 mup_inv_npvth=0.079
+mup_na_ppvth_lt=-0.272 mup_na_ppvth_rt=-0.196 mup_na_npvth_up=0.231 mup_na_npvth_dn=0.182
+mup_nb_ppvth_lt=-0.238 mup_nb_ppvth_rt=-0.178 mup_nb_npvth_up=0.731 mup_nb_npvth_dn=0.290
+mup_no_ppvth_lt=-0.156 mup_no_ppvth_rt=-0.003 mup_no_npvth_up=0.212 mup_no_npvth_dn=0.186

** Vt parameters of the lower MUX2x1
+mdn_inv_ppvth=-0.347 mdn_inv_npvth=0.156
+mdn_na_ppvth_lt=-0.808 mdn_na_ppvth_rt=-0.239 mdn_na_npvth_up=0.554 mdn_na_npvth_dn=0.587
+mdn_nb_ppvth_lt=-0.262 mdn_nb_ppvth_rt=-0.212 mdn_nb_npvth_up=0.126 mdn_nb_npvth_dn=0.745
+mdn_no_ppvth_lt=-0.453 mdn_no_ppvth_rt=-0.199 mdn_no_npvth_up=0.639 mdn_no_npvth_dn=0.081
**

** 2 PUF stage
xi1 gnd net2 net3 ch_1 net4 net5 vdd puf_stage
** Vt parameters of the upper MUX2x1
+mup_inv_ppvth=-0.283 mup_inv_npvth=0.107
+mup_na_ppvth_lt=-0.331 mup_na_ppvth_rt=-0.089 mup_na_npvth_up=0.520 mup_na_npvth_dn=0.400
+mup_nb_ppvth_lt=-0.672 mup_nb_ppvth_rt=-0.075 mup_nb_npvth_up=0.734 mup_nb_npvth_dn=0.082
+mup_no_ppvth_lt=-0.125 mup_no_ppvth_rt=-0.123 mup_no_npvth_up=0.156 mup_no_npvth_dn=0.301

** Vt parameters of the lower MUX2x1
+mdn_inv_ppvth=-0.401 mdn_inv_npvth=0.175
+mdn_na_ppvth_lt=-0.042 mdn_na_ppvth_rt=-0.782 mdn_na_npvth_up=0.702 mdn_na_npvth_dn=0.141
+mdn_nb_ppvth_lt=-0.056 mdn_nb_ppvth_rt=-0.197 mdn_nb_npvth_up=0.232 mdn_nb_npvth_dn=0.368
+mdn_no_ppvth_lt=-0.341 mdn_no_ppvth_rt=-0.125 mdn_no_npvth_up=0.190 mdn_no_npvth_dn=0.221
**

** 3 PUF stage
xi2 gnd net4 net5 ch_2 net6 net7 vdd puf_stage
** Vt parameters of the upper MUX2x1
+mup_inv_ppvth=-0.386 mup_inv_npvth=0.604
+mup_na_ppvth_lt=-0.064 mup_na_ppvth_rt=-0.028 mup_na_npvth_up=0.205 mup_na_npvth_dn=0.248
+mup_nb_ppvth_lt=-0.263 mup_nb_ppvth_rt=-0.119 mup_nb_npvth_up=0.792 mup_nb_npvth_dn=0.895
+mup_no_ppvth_lt=-0.912 mup_no_ppvth_rt=-0.054 mup_no_npvth_up=0.189 mup_no_npvth_dn=0.154

** Vt parameters of the lower MUX2x1
+mdn_inv_ppvth=-0.173 mdn_inv_npvth=0.025
+mdn_na_ppvth_lt=-0.421 mdn_na_ppvth_rt=-0.126 mdn_na_npvth_up=0.337 mdn_na_npvth_dn=0.078
+mdn_nb_ppvth_lt=-0.271 mdn_nb_ppvth_rt=-0.239 mdn_nb_npvth_up=0.216 mdn_nb_npvth_dn=0.438
+mdn_no_ppvth_lt=-0.091 mdn_no_ppvth_rt=-0.181 mdn_no_npvth_up=0.831 mdn_no_npvth_dn=0.021
**

** 4 PUF stage
xi3 gnd net6 net7 ch_3 net8 net9 vdd puf_stage
** Vt parameters of the upper MUX2x1
+mup_inv_ppvth=-0.310 mup_inv_npvth=0.528
+mup_na_ppvth_lt=-0.052 mup_na_ppvth_rt=-0.021 mup_na_npvth_up=0.557 mup_na_npvth_dn=0.094
+mup_nb_ppvth_lt=-0.237 mup_nb_ppvth_rt=-0.152 mup_nb_npvth_up=0.671 mup_nb_npvth_dn=0.232
+mup_no_ppvth_lt=-0.324 mup_no_ppvth_rt=-0.112 mup_no_npvth_up=0.315 mup_no_npvth_dn=0.253

** Vt parameters of the lower MUX2x1
+mdn_inv_ppvth=-0.241 mdn_inv_npvth=0.475
+mdn_na_ppvth_lt=-0.000 mdn_na_ppvth_rt=-0.270 mdn_na_npvth_up=0.259 mdn_na_npvth_dn=0.091
+mdn_nb_ppvth_lt=-0.013 mdn_nb_ppvth_rt=-0.234 mdn_nb_npvth_up=0.075 mdn_nb_npvth_dn=0.045
+mdn_no_ppvth_lt=-0.078 mdn_no_ppvth_rt=-0.050 mdn_no_npvth_up=0.535 mdn_no_npvth_dn=0.796
**

** 5 PUF stage
xi4 gnd net8 net9 ch_4 net10 net11 vdd puf_stage
** Vt parameters of the upper MUX2x1
+mup_inv_ppvth=-0.749 mup_inv_npvth=0.184
+mup_na_ppvth_lt=-0.259 mup_na_ppvth_rt=-0.264 mup_na_npvth_up=0.073 mup_na_npvth_dn=0.145
+mup_nb_ppvth_lt=-0.326 mup_nb_ppvth_rt=-0.053 mup_nb_npvth_up=0.289 mup_nb_npvth_dn=0.244
+mup_no_ppvth_lt=-0.092 mup_no_ppvth_rt=-0.592 mup_no_npvth_up=0.148 mup_no_npvth_dn=0.589

** Vt parameters of the lower MUX2x1
+mdn_inv_ppvth=-0.209 mdn_inv_npvth=0.058
+mdn_na_ppvth_lt=-0.361 mdn_na_ppvth_rt=-0.268 mdn_na_npvth_up=0.161 mdn_na_npvth_dn=0.567
+mdn_nb_ppvth_lt=-0.157 mdn_nb_ppvth_rt=-0.709 mdn_nb_npvth_up=0.347 mdn_nb_npvth_dn=0.490
+mdn_no_ppvth_lt=-0.304 mdn_no_ppvth_rt=-0.571 mdn_no_npvth_up=0.115 mdn_no_npvth_dn=0.485
**

** 6 PUF stage
xi5 gnd net10 net11 ch_5 net12 net13 vdd puf_stage
** Vt parameters of the upper MUX2x1
+mup_inv_ppvth=-0.392 mup_inv_npvth=0.433
+mup_na_ppvth_lt=-0.343 mup_na_ppvth_rt=-0.510 mup_na_npvth_up=0.548 mup_na_npvth_dn=0.046
+mup_nb_ppvth_lt=-0.266 mup_nb_ppvth_rt=-0.273 mup_nb_npvth_up=0.848 mup_nb_npvth_dn=0.154
+mup_no_ppvth_lt=-0.752 mup_no_ppvth_rt=-0.446 mup_no_npvth_up=0.206 mup_no_npvth_dn=0.586

** Vt parameters of the lower MUX2x1
+mdn_inv_ppvth=-0.210 mdn_inv_npvth=0.434
+mdn_na_ppvth_lt=-0.315 mdn_na_ppvth_rt=-0.622 mdn_na_npvth_up=0.304 mdn_na_npvth_dn=0.058
+mdn_nb_ppvth_lt=-0.415 mdn_nb_ppvth_rt=-0.338 mdn_nb_npvth_up=0.520 mdn_nb_npvth_dn=0.699
+mdn_no_ppvth_lt=-0.157 mdn_no_ppvth_rt=-0.200 mdn_no_npvth_up=0.771 mdn_no_npvth_dn=0.433
**

** 7 PUF stage
xi6 gnd net12 net13 ch_6 net14 net15 vdd puf_stage
** Vt parameters of the upper MUX2x1
+mup_inv_ppvth=-0.116 mup_inv_npvth=0.097
+mup_na_ppvth_lt=-0.532 mup_na_ppvth_rt=-0.254 mup_na_npvth_up=0.524 mup_na_npvth_dn=0.177
+mup_nb_ppvth_lt=-0.174 mup_nb_ppvth_rt=-0.031 mup_nb_npvth_up=0.677 mup_nb_npvth_dn=0.188
+mup_no_ppvth_lt=-0.545 mup_no_ppvth_rt=-0.345 mup_no_npvth_up=0.014 mup_no_npvth_dn=0.244

** Vt parameters of the lower MUX2x1
+mdn_inv_ppvth=-0.256 mdn_inv_npvth=0.141
+mdn_na_ppvth_lt=-0.623 mdn_na_ppvth_rt=-0.463 mdn_na_npvth_up=0.192 mdn_na_npvth_dn=0.629
+mdn_nb_ppvth_lt=-0.228 mdn_nb_ppvth_rt=-0.657 mdn_nb_npvth_up=0.417 mdn_nb_npvth_dn=0.285
+mdn_no_ppvth_lt=-0.350 mdn_no_ppvth_rt=-0.163 mdn_no_npvth_up=0.049 mdn_no_npvth_dn=0.544
**

** 8 PUF stage
xi7 gnd net14 net15 ch_7 net16 net17 vdd puf_stage
** Vt parameters of the upper MUX2x1
+mup_inv_ppvth=-0.764 mup_inv_npvth=1.501
+mup_na_ppvth_lt=-0.443 mup_na_ppvth_rt=-0.361 mup_na_npvth_up=0.178 mup_na_npvth_dn=0.248
+mup_nb_ppvth_lt=-0.464 mup_nb_ppvth_rt=-0.025 mup_nb_npvth_up=0.337 mup_nb_npvth_dn=0.233
+mup_no_ppvth_lt=-0.622 mup_no_ppvth_rt=-0.281 mup_no_npvth_up=0.111 mup_no_npvth_dn=0.269

** Vt parameters of the lower MUX2x1
+mdn_inv_ppvth=-0.104 mdn_inv_npvth=0.061
+mdn_na_ppvth_lt=-0.332 mdn_na_ppvth_rt=-0.191 mdn_na_npvth_up=0.100 mdn_na_npvth_dn=0.303
+mdn_nb_ppvth_lt=-0.387 mdn_nb_ppvth_rt=-0.056 mdn_nb_npvth_up=0.037 mdn_nb_npvth_dn=0.341
+mdn_no_ppvth_lt=-0.446 mdn_no_ppvth_rt=-0.026 mdn_no_npvth_up=0.122 mdn_no_npvth_dn=0.761
**

** 9 PUF stage
xi8 gnd net16 net17 ch_8 net18 net19 vdd puf_stage
** Vt parameters of the upper MUX2x1
+mup_inv_ppvth=-0.386 mup_inv_npvth=0.010
+mup_na_ppvth_lt=-0.168 mup_na_ppvth_rt=-0.306 mup_na_npvth_up=0.648 mup_na_npvth_dn=0.812
+mup_nb_ppvth_lt=-0.080 mup_nb_ppvth_rt=-0.626 mup_nb_npvth_up=0.860 mup_nb_npvth_dn=0.451
+mup_no_ppvth_lt=-0.544 mup_no_ppvth_rt=-0.211 mup_no_npvth_up=0.123 mup_no_npvth_dn=0.074

** Vt parameters of the lower MUX2x1
+mdn_inv_ppvth=-0.012 mdn_inv_npvth=0.138
+mdn_na_ppvth_lt=-0.012 mdn_na_ppvth_rt=-0.254 mdn_na_npvth_up=0.262 mdn_na_npvth_dn=0.013
+mdn_nb_ppvth_lt=-0.437 mdn_nb_ppvth_rt=-0.575 mdn_nb_npvth_up=0.381 mdn_nb_npvth_dn=0.424
+mdn_no_ppvth_lt=-0.516 mdn_no_ppvth_rt=-0.062 mdn_no_npvth_up=0.124 mdn_no_npvth_dn=0.189
**

** 10 PUF stage
xi9 gnd net18 net19 ch_9 net20 net21 vdd puf_stage
** Vt parameters of the upper MUX2x1
+mup_inv_ppvth=-0.142 mup_inv_npvth=0.361
+mup_na_ppvth_lt=-0.124 mup_na_ppvth_rt=-0.258 mup_na_npvth_up=0.405 mup_na_npvth_dn=0.431
+mup_nb_ppvth_lt=-0.432 mup_nb_ppvth_rt=-0.514 mup_nb_npvth_up=0.247 mup_nb_npvth_dn=0.139
+mup_no_ppvth_lt=-0.119 mup_no_ppvth_rt=-0.343 mup_no_npvth_up=0.314 mup_no_npvth_dn=0.148

** Vt parameters of the lower MUX2x1
+mdn_inv_ppvth=-0.463 mdn_inv_npvth=0.176
+mdn_na_ppvth_lt=-0.859 mdn_na_ppvth_rt=-0.508 mdn_na_npvth_up=0.346 mdn_na_npvth_dn=0.488
+mdn_nb_ppvth_lt=-0.564 mdn_nb_ppvth_rt=-0.007 mdn_nb_npvth_up=0.088 mdn_nb_npvth_dn=0.056
+mdn_no_ppvth_lt=-0.410 mdn_no_ppvth_rt=-1.312 mdn_no_npvth_up=0.204 mdn_no_npvth_dn=0.330
**

** 11 PUF stage
xi10 gnd net20 net21 ch_10 net22 net23 vdd puf_stage
** Vt parameters of the upper MUX2x1
+mup_inv_ppvth=-0.048 mup_inv_npvth=0.144
+mup_na_ppvth_lt=-0.322 mup_na_ppvth_rt=-0.596 mup_na_npvth_up=0.288 mup_na_npvth_dn=0.153
+mup_nb_ppvth_lt=-0.696 mup_nb_ppvth_rt=-0.163 mup_nb_npvth_up=0.224 mup_nb_npvth_dn=0.451
+mup_no_ppvth_lt=-0.410 mup_no_ppvth_rt=-0.701 mup_no_npvth_up=0.539 mup_no_npvth_dn=0.479

** Vt parameters of the lower MUX2x1
+mdn_inv_ppvth=-0.232 mdn_inv_npvth=0.872
+mdn_na_ppvth_lt=-0.062 mdn_na_ppvth_rt=-0.122 mdn_na_npvth_up=0.035 mdn_na_npvth_dn=0.579
+mdn_nb_ppvth_lt=-0.542 mdn_nb_ppvth_rt=-0.095 mdn_nb_npvth_up=0.791 mdn_nb_npvth_dn=0.181
+mdn_no_ppvth_lt=-0.575 mdn_no_ppvth_rt=-0.269 mdn_no_npvth_up=0.620 mdn_no_npvth_dn=0.251
**

** 12 PUF stage
xi11 gnd net22 net23 ch_11 net24 net25 vdd puf_stage
** Vt parameters of the upper MUX2x1
+mup_inv_ppvth=-0.354 mup_inv_npvth=0.304
+mup_na_ppvth_lt=-0.080 mup_na_ppvth_rt=-0.813 mup_na_npvth_up=0.012 mup_na_npvth_dn=0.294
+mup_nb_ppvth_lt=-0.221 mup_nb_ppvth_rt=-0.292 mup_nb_npvth_up=0.326 mup_nb_npvth_dn=0.855
+mup_no_ppvth_lt=-0.412 mup_no_ppvth_rt=-0.842 mup_no_npvth_up=1.632 mup_no_npvth_dn=0.155

** Vt parameters of the lower MUX2x1
+mdn_inv_ppvth=-0.560 mdn_inv_npvth=0.649
+mdn_na_ppvth_lt=-0.542 mdn_na_ppvth_rt=-0.074 mdn_na_npvth_up=0.356 mdn_na_npvth_dn=0.635
+mdn_nb_ppvth_lt=-0.038 mdn_nb_ppvth_rt=-0.506 mdn_nb_npvth_up=0.637 mdn_nb_npvth_dn=0.432
+mdn_no_ppvth_lt=-0.100 mdn_no_ppvth_rt=-0.010 mdn_no_npvth_up=0.004 mdn_no_npvth_dn=0.671
**

** 13 PUF stage
xi12 gnd net24 net25 ch_12 net26 net27 vdd puf_stage
** Vt parameters of the upper MUX2x1
+mup_inv_ppvth=-0.842 mup_inv_npvth=0.459
+mup_na_ppvth_lt=-0.347 mup_na_ppvth_rt=-0.169 mup_na_npvth_up=0.110 mup_na_npvth_dn=0.209
+mup_nb_ppvth_lt=-0.022 mup_nb_ppvth_rt=-0.397 mup_nb_npvth_up=0.282 mup_nb_npvth_dn=0.624
+mup_no_ppvth_lt=-0.408 mup_no_ppvth_rt=-0.379 mup_no_npvth_up=0.425 mup_no_npvth_dn=0.593

** Vt parameters of the lower MUX2x1
+mdn_inv_ppvth=-0.560 mdn_inv_npvth=0.117
+mdn_na_ppvth_lt=-0.413 mdn_na_ppvth_rt=-0.534 mdn_na_npvth_up=0.013 mdn_na_npvth_dn=0.466
+mdn_nb_ppvth_lt=-0.234 mdn_nb_ppvth_rt=-0.328 mdn_nb_npvth_up=0.286 mdn_nb_npvth_dn=0.645
+mdn_no_ppvth_lt=-0.355 mdn_no_ppvth_rt=-0.240 mdn_no_npvth_up=0.094 mdn_no_npvth_dn=0.712
**

** 14 PUF stage
xi13 gnd net26 net27 ch_13 net28 net29 vdd puf_stage
** Vt parameters of the upper MUX2x1
+mup_inv_ppvth=-0.913 mup_inv_npvth=0.851
+mup_na_ppvth_lt=-0.290 mup_na_ppvth_rt=-0.589 mup_na_npvth_up=0.561 mup_na_npvth_dn=0.678
+mup_nb_ppvth_lt=-0.917 mup_nb_ppvth_rt=-0.906 mup_nb_npvth_up=0.039 mup_nb_npvth_dn=0.335
+mup_no_ppvth_lt=-0.542 mup_no_ppvth_rt=-0.421 mup_no_npvth_up=0.003 mup_no_npvth_dn=0.452

** Vt parameters of the lower MUX2x1
+mdn_inv_ppvth=-0.355 mdn_inv_npvth=0.066
+mdn_na_ppvth_lt=-0.073 mdn_na_ppvth_rt=-0.071 mdn_na_npvth_up=0.315 mdn_na_npvth_dn=0.147
+mdn_nb_ppvth_lt=-0.038 mdn_nb_ppvth_rt=-0.241 mdn_nb_npvth_up=0.788 mdn_nb_npvth_dn=0.090
+mdn_no_ppvth_lt=-0.004 mdn_no_ppvth_rt=-0.080 mdn_no_npvth_up=0.087 mdn_no_npvth_dn=0.197
**

** 15 PUF stage
xi14 gnd net28 net29 ch_14 net30 net31 vdd puf_stage
** Vt parameters of the upper MUX2x1
+mup_inv_ppvth=-0.646 mup_inv_npvth=0.433
+mup_na_ppvth_lt=-0.183 mup_na_ppvth_rt=-0.084 mup_na_npvth_up=0.020 mup_na_npvth_dn=0.095
+mup_nb_ppvth_lt=-0.188 mup_nb_ppvth_rt=-0.771 mup_nb_npvth_up=0.642 mup_nb_npvth_dn=0.375
+mup_no_ppvth_lt=-0.368 mup_no_ppvth_rt=-0.087 mup_no_npvth_up=0.343 mup_no_npvth_dn=0.134

** Vt parameters of the lower MUX2x1
+mdn_inv_ppvth=-0.012 mdn_inv_npvth=0.106
+mdn_na_ppvth_lt=-0.080 mdn_na_ppvth_rt=-0.389 mdn_na_npvth_up=0.838 mdn_na_npvth_dn=0.298
+mdn_nb_ppvth_lt=-0.026 mdn_nb_ppvth_rt=-0.074 mdn_nb_npvth_up=0.057 mdn_nb_npvth_dn=0.957
+mdn_no_ppvth_lt=-0.353 mdn_no_ppvth_rt=-0.253 mdn_no_npvth_up=0.288 mdn_no_npvth_dn=0.271
**

** 16 PUF stage
xi15 gnd net30 net31 ch_15 net32 net33 vdd puf_stage
** Vt parameters of the upper MUX2x1
+mup_inv_ppvth=-0.522 mup_inv_npvth=0.413
+mup_na_ppvth_lt=-0.136 mup_na_ppvth_rt=-0.626 mup_na_npvth_up=0.197 mup_na_npvth_dn=0.383
+mup_nb_ppvth_lt=-0.237 mup_nb_ppvth_rt=-0.395 mup_nb_npvth_up=0.249 mup_nb_npvth_dn=0.009
+mup_no_ppvth_lt=-0.122 mup_no_ppvth_rt=-0.502 mup_no_npvth_up=0.418 mup_no_npvth_dn=0.689

** Vt parameters of the lower MUX2x1
+mdn_inv_ppvth=-0.439 mdn_inv_npvth=0.130
+mdn_na_ppvth_lt=-0.462 mdn_na_ppvth_rt=-0.679 mdn_na_npvth_up=0.244 mdn_na_npvth_dn=0.812
+mdn_nb_ppvth_lt=-0.069 mdn_nb_ppvth_rt=-0.482 mdn_nb_npvth_up=0.079 mdn_nb_npvth_dn=0.190
+mdn_no_ppvth_lt=-0.168 mdn_no_ppvth_rt=-0.180 mdn_no_npvth_up=0.334 mdn_no_npvth_dn=0.152
**

** 17 PUF stage
xi16 gnd net32 net33 ch_16 net34 net35 vdd puf_stage
** Vt parameters of the upper MUX2x1
+mup_inv_ppvth=-0.064 mup_inv_npvth=0.154
+mup_na_ppvth_lt=-0.352 mup_na_ppvth_rt=-0.347 mup_na_npvth_up=0.424 mup_na_npvth_dn=0.644
+mup_nb_ppvth_lt=-0.709 mup_nb_ppvth_rt=-0.184 mup_nb_npvth_up=0.210 mup_nb_npvth_dn=0.399
+mup_no_ppvth_lt=-0.767 mup_no_ppvth_rt=-0.261 mup_no_npvth_up=0.216 mup_no_npvth_dn=0.473

** Vt parameters of the lower MUX2x1
+mdn_inv_ppvth=-0.147 mdn_inv_npvth=0.373
+mdn_na_ppvth_lt=-0.425 mdn_na_ppvth_rt=-0.513 mdn_na_npvth_up=0.264 mdn_na_npvth_dn=0.057
+mdn_nb_ppvth_lt=-0.615 mdn_nb_ppvth_rt=-0.456 mdn_nb_npvth_up=0.696 mdn_nb_npvth_dn=0.304
+mdn_no_ppvth_lt=-0.663 mdn_no_ppvth_rt=-0.174 mdn_no_npvth_up=0.047 mdn_no_npvth_dn=0.738
**

** 18 PUF stage
xi17 gnd net34 net35 ch_17 net36 net37 vdd puf_stage
** Vt parameters of the upper MUX2x1
+mup_inv_ppvth=-0.120 mup_inv_npvth=0.572
+mup_na_ppvth_lt=-0.176 mup_na_ppvth_rt=-0.019 mup_na_npvth_up=0.546 mup_na_npvth_dn=0.709
+mup_nb_ppvth_lt=-0.230 mup_nb_ppvth_rt=-0.562 mup_nb_npvth_up=0.301 mup_nb_npvth_dn=0.830
+mup_no_ppvth_lt=-0.135 mup_no_ppvth_rt=-0.278 mup_no_npvth_up=0.398 mup_no_npvth_dn=0.062

** Vt parameters of the lower MUX2x1
+mdn_inv_ppvth=-1.032 mdn_inv_npvth=0.789
+mdn_na_ppvth_lt=-0.259 mdn_na_ppvth_rt=-0.403 mdn_na_npvth_up=0.284 mdn_na_npvth_dn=0.869
+mdn_nb_ppvth_lt=-0.538 mdn_nb_ppvth_rt=-0.741 mdn_nb_npvth_up=0.281 mdn_nb_npvth_dn=0.455
+mdn_no_ppvth_lt=-0.101 mdn_no_ppvth_rt=-0.244 mdn_no_npvth_up=0.006 mdn_no_npvth_dn=0.384
**

** 19 PUF stage
xi18 gnd net36 net37 ch_18 net38 net39 vdd puf_stage
** Vt parameters of the upper MUX2x1
+mup_inv_ppvth=-0.047 mup_inv_npvth=1.044
+mup_na_ppvth_lt=-0.725 mup_na_ppvth_rt=-0.140 mup_na_npvth_up=0.831 mup_na_npvth_dn=0.863
+mup_nb_ppvth_lt=-0.193 mup_nb_ppvth_rt=-0.003 mup_nb_npvth_up=0.681 mup_nb_npvth_dn=0.509
+mup_no_ppvth_lt=-0.450 mup_no_ppvth_rt=-0.353 mup_no_npvth_up=0.445 mup_no_npvth_dn=0.106

** Vt parameters of the lower MUX2x1
+mdn_inv_ppvth=-0.113 mdn_inv_npvth=0.648
+mdn_na_ppvth_lt=-0.236 mdn_na_ppvth_rt=-0.760 mdn_na_npvth_up=0.297 mdn_na_npvth_dn=0.442
+mdn_nb_ppvth_lt=-0.075 mdn_nb_ppvth_rt=-0.409 mdn_nb_npvth_up=0.188 mdn_nb_npvth_dn=0.044
+mdn_no_ppvth_lt=-0.154 mdn_no_ppvth_rt=-0.053 mdn_no_npvth_up=0.118 mdn_no_npvth_dn=0.311
**

** 20 PUF stage
xi19 gnd net38 net39 ch_19 net40 net41 vdd puf_stage
** Vt parameters of the upper MUX2x1
+mup_inv_ppvth=-0.012 mup_inv_npvth=0.129
+mup_na_ppvth_lt=-0.173 mup_na_ppvth_rt=-0.076 mup_na_npvth_up=0.252 mup_na_npvth_dn=0.389
+mup_nb_ppvth_lt=-0.376 mup_nb_ppvth_rt=-0.449 mup_nb_npvth_up=0.108 mup_nb_npvth_dn=1.039
+mup_no_ppvth_lt=-0.053 mup_no_ppvth_rt=-0.089 mup_no_npvth_up=0.033 mup_no_npvth_dn=0.504

** Vt parameters of the lower MUX2x1
+mdn_inv_ppvth=-0.276 mdn_inv_npvth=0.128
+mdn_na_ppvth_lt=-0.065 mdn_na_ppvth_rt=-0.186 mdn_na_npvth_up=0.521 mdn_na_npvth_dn=0.082
+mdn_nb_ppvth_lt=-0.085 mdn_nb_ppvth_rt=-0.086 mdn_nb_npvth_up=0.078 mdn_nb_npvth_dn=0.594
+mdn_no_ppvth_lt=-0.226 mdn_no_ppvth_rt=-1.010 mdn_no_npvth_up=0.377 mdn_no_npvth_dn=0.058
**

** 21 PUF stage
xi20 gnd net40 net41 ch_20 net42 net43 vdd puf_stage
** Vt parameters of the upper MUX2x1
+mup_inv_ppvth=-0.036 mup_inv_npvth=0.507
+mup_na_ppvth_lt=-0.372 mup_na_ppvth_rt=-0.536 mup_na_npvth_up=0.012 mup_na_npvth_dn=0.452
+mup_nb_ppvth_lt=-0.286 mup_nb_ppvth_rt=-0.006 mup_nb_npvth_up=0.625 mup_nb_npvth_dn=0.265
+mup_no_ppvth_lt=-0.217 mup_no_ppvth_rt=-0.630 mup_no_npvth_up=0.759 mup_no_npvth_dn=0.462

** Vt parameters of the lower MUX2x1
+mdn_inv_ppvth=-0.519 mdn_inv_npvth=0.364
+mdn_na_ppvth_lt=-0.412 mdn_na_ppvth_rt=-0.764 mdn_na_npvth_up=0.375 mdn_na_npvth_dn=0.447
+mdn_nb_ppvth_lt=-0.373 mdn_nb_ppvth_rt=-0.115 mdn_nb_npvth_up=0.085 mdn_nb_npvth_dn=0.135
+mdn_no_ppvth_lt=-0.543 mdn_no_ppvth_rt=-0.415 mdn_no_npvth_up=0.057 mdn_no_npvth_dn=0.293
**

** 22 PUF stage
xi21 gnd net42 net43 ch_21 net44 net45 vdd puf_stage
** Vt parameters of the upper MUX2x1
+mup_inv_ppvth=-0.579 mup_inv_npvth=0.564
+mup_na_ppvth_lt=-0.344 mup_na_ppvth_rt=-0.008 mup_na_npvth_up=0.567 mup_na_npvth_dn=0.271
+mup_nb_ppvth_lt=-0.705 mup_nb_ppvth_rt=-0.048 mup_nb_npvth_up=0.027 mup_nb_npvth_dn=0.006
+mup_no_ppvth_lt=-0.604 mup_no_ppvth_rt=-0.594 mup_no_npvth_up=0.562 mup_no_npvth_dn=0.329

** Vt parameters of the lower MUX2x1
+mdn_inv_ppvth=-0.050 mdn_inv_npvth=0.471
+mdn_na_ppvth_lt=-0.369 mdn_na_ppvth_rt=-0.142 mdn_na_npvth_up=0.036 mdn_na_npvth_dn=0.275
+mdn_nb_ppvth_lt=-0.303 mdn_nb_ppvth_rt=-0.292 mdn_nb_npvth_up=0.031 mdn_nb_npvth_dn=0.529
+mdn_no_ppvth_lt=-0.340 mdn_no_ppvth_rt=-0.529 mdn_no_npvth_up=0.661 mdn_no_npvth_dn=0.280
**

** 23 PUF stage
xi22 gnd net44 net45 ch_22 net46 net47 vdd puf_stage
** Vt parameters of the upper MUX2x1
+mup_inv_ppvth=-0.049 mup_inv_npvth=0.059
+mup_na_ppvth_lt=-0.510 mup_na_ppvth_rt=-0.359 mup_na_npvth_up=0.150 mup_na_npvth_dn=0.010
+mup_nb_ppvth_lt=-0.299 mup_nb_ppvth_rt=-0.742 mup_nb_npvth_up=0.053 mup_nb_npvth_dn=0.482
+mup_no_ppvth_lt=-0.116 mup_no_ppvth_rt=-0.013 mup_no_npvth_up=0.712 mup_no_npvth_dn=0.508

** Vt parameters of the lower MUX2x1
+mdn_inv_ppvth=-0.091 mdn_inv_npvth=0.223
+mdn_na_ppvth_lt=-0.124 mdn_na_ppvth_rt=-0.204 mdn_na_npvth_up=0.456 mdn_na_npvth_dn=0.303
+mdn_nb_ppvth_lt=-0.705 mdn_nb_ppvth_rt=-0.598 mdn_nb_npvth_up=0.410 mdn_nb_npvth_dn=0.566
+mdn_no_ppvth_lt=-0.139 mdn_no_ppvth_rt=-0.532 mdn_no_npvth_up=0.044 mdn_no_npvth_dn=0.299
**

** 24 PUF stage
xi23 gnd net46 net47 ch_23 net48 net49 vdd puf_stage
** Vt parameters of the upper MUX2x1
+mup_inv_ppvth=-0.152 mup_inv_npvth=0.575
+mup_na_ppvth_lt=-0.532 mup_na_ppvth_rt=-0.397 mup_na_npvth_up=0.026 mup_na_npvth_dn=0.056
+mup_nb_ppvth_lt=-0.340 mup_nb_ppvth_rt=-0.418 mup_nb_npvth_up=0.272 mup_nb_npvth_dn=0.231
+mup_no_ppvth_lt=-0.022 mup_no_ppvth_rt=-0.381 mup_no_npvth_up=0.271 mup_no_npvth_dn=0.216

** Vt parameters of the lower MUX2x1
+mdn_inv_ppvth=-0.620 mdn_inv_npvth=0.594
+mdn_na_ppvth_lt=-0.108 mdn_na_ppvth_rt=-0.224 mdn_na_npvth_up=0.105 mdn_na_npvth_dn=0.759
+mdn_nb_ppvth_lt=-0.573 mdn_nb_ppvth_rt=-0.153 mdn_nb_npvth_up=0.331 mdn_nb_npvth_dn=0.210
+mdn_no_ppvth_lt=-0.461 mdn_no_ppvth_rt=-0.264 mdn_no_npvth_up=0.503 mdn_no_npvth_dn=0.445
**

** 25 PUF stage
xi24 gnd net48 net49 ch_24 net50 net51 vdd puf_stage
** Vt parameters of the upper MUX2x1
+mup_inv_ppvth=-0.352 mup_inv_npvth=0.412
+mup_na_ppvth_lt=-0.990 mup_na_ppvth_rt=-0.078 mup_na_npvth_up=0.030 mup_na_npvth_dn=0.207
+mup_nb_ppvth_lt=-0.784 mup_nb_ppvth_rt=-0.556 mup_nb_npvth_up=0.104 mup_nb_npvth_dn=0.386
+mup_no_ppvth_lt=-1.094 mup_no_ppvth_rt=-0.215 mup_no_npvth_up=0.080 mup_no_npvth_dn=0.005

** Vt parameters of the lower MUX2x1
+mdn_inv_ppvth=-0.305 mdn_inv_npvth=0.501
+mdn_na_ppvth_lt=-0.304 mdn_na_ppvth_rt=-0.108 mdn_na_npvth_up=0.229 mdn_na_npvth_dn=0.477
+mdn_nb_ppvth_lt=-0.572 mdn_nb_ppvth_rt=-0.885 mdn_nb_npvth_up=0.315 mdn_nb_npvth_dn=0.628
+mdn_no_ppvth_lt=-0.304 mdn_no_ppvth_rt=-0.096 mdn_no_npvth_up=0.432 mdn_no_npvth_dn=0.012
**

** 26 PUF stage
xi25 gnd net50 net51 ch_25 net52 net53 vdd puf_stage
** Vt parameters of the upper MUX2x1
+mup_inv_ppvth=-0.754 mup_inv_npvth=0.289
+mup_na_ppvth_lt=-0.180 mup_na_ppvth_rt=-0.832 mup_na_npvth_up=0.154 mup_na_npvth_dn=0.455
+mup_nb_ppvth_lt=-0.255 mup_nb_ppvth_rt=-0.365 mup_nb_npvth_up=0.307 mup_nb_npvth_dn=0.532
+mup_no_ppvth_lt=-0.228 mup_no_ppvth_rt=-0.917 mup_no_npvth_up=0.279 mup_no_npvth_dn=0.173

** Vt parameters of the lower MUX2x1
+mdn_inv_ppvth=-0.026 mdn_inv_npvth=0.835
+mdn_na_ppvth_lt=-0.352 mdn_na_ppvth_rt=-0.423 mdn_na_npvth_up=0.448 mdn_na_npvth_dn=0.002
+mdn_nb_ppvth_lt=-0.582 mdn_nb_ppvth_rt=-0.298 mdn_nb_npvth_up=0.233 mdn_nb_npvth_dn=0.071
+mdn_no_ppvth_lt=-0.257 mdn_no_ppvth_rt=-0.738 mdn_no_npvth_up=0.292 mdn_no_npvth_dn=0.136
**

** 27 PUF stage
xi26 gnd net52 net53 ch_26 net54 net55 vdd puf_stage
** Vt parameters of the upper MUX2x1
+mup_inv_ppvth=-0.658 mup_inv_npvth=0.026
+mup_na_ppvth_lt=-0.522 mup_na_ppvth_rt=-0.012 mup_na_npvth_up=0.167 mup_na_npvth_dn=0.269
+mup_nb_ppvth_lt=-0.279 mup_nb_ppvth_rt=-0.130 mup_nb_npvth_up=0.531 mup_nb_npvth_dn=0.318
+mup_no_ppvth_lt=-0.069 mup_no_ppvth_rt=-0.102 mup_no_npvth_up=0.408 mup_no_npvth_dn=0.086

** Vt parameters of the lower MUX2x1
+mdn_inv_ppvth=-0.010 mdn_inv_npvth=0.292
+mdn_na_ppvth_lt=-0.411 mdn_na_ppvth_rt=-0.559 mdn_na_npvth_up=0.164 mdn_na_npvth_dn=0.726
+mdn_nb_ppvth_lt=-0.023 mdn_nb_ppvth_rt=-0.535 mdn_nb_npvth_up=0.273 mdn_nb_npvth_dn=0.469
+mdn_no_ppvth_lt=-0.192 mdn_no_ppvth_rt=-0.259 mdn_no_npvth_up=0.234 mdn_no_npvth_dn=0.030
**

** 28 PUF stage
xi27 gnd net54 net55 ch_27 net56 net57 vdd puf_stage
** Vt parameters of the upper MUX2x1
+mup_inv_ppvth=-0.216 mup_inv_npvth=0.970
+mup_na_ppvth_lt=-0.218 mup_na_ppvth_rt=-0.229 mup_na_npvth_up=0.006 mup_na_npvth_dn=0.041
+mup_nb_ppvth_lt=-0.675 mup_nb_ppvth_rt=-0.163 mup_nb_npvth_up=0.006 mup_nb_npvth_dn=0.318
+mup_no_ppvth_lt=-0.575 mup_no_ppvth_rt=-0.118 mup_no_npvth_up=0.310 mup_no_npvth_dn=0.393

** Vt parameters of the lower MUX2x1
+mdn_inv_ppvth=-0.850 mdn_inv_npvth=0.719
+mdn_na_ppvth_lt=-0.854 mdn_na_ppvth_rt=-0.077 mdn_na_npvth_up=0.031 mdn_na_npvth_dn=0.222
+mdn_nb_ppvth_lt=-0.498 mdn_nb_ppvth_rt=-0.907 mdn_nb_npvth_up=0.501 mdn_nb_npvth_dn=0.411
+mdn_no_ppvth_lt=-0.383 mdn_no_ppvth_rt=-0.193 mdn_no_npvth_up=0.123 mdn_no_npvth_dn=0.521
**

** 29 PUF stage
xi28 gnd net56 net57 ch_28 net58 net59 vdd puf_stage
** Vt parameters of the upper MUX2x1
+mup_inv_ppvth=-0.075 mup_inv_npvth=0.330
+mup_na_ppvth_lt=-0.172 mup_na_ppvth_rt=-0.671 mup_na_npvth_up=0.244 mup_na_npvth_dn=0.346
+mup_nb_ppvth_lt=-0.815 mup_nb_ppvth_rt=-0.526 mup_nb_npvth_up=0.183 mup_nb_npvth_dn=0.021
+mup_no_ppvth_lt=-0.011 mup_no_ppvth_rt=-0.448 mup_no_npvth_up=0.530 mup_no_npvth_dn=0.476

** Vt parameters of the lower MUX2x1
+mdn_inv_ppvth=-0.637 mdn_inv_npvth=0.302
+mdn_na_ppvth_lt=-0.200 mdn_na_ppvth_rt=-0.260 mdn_na_npvth_up=0.539 mdn_na_npvth_dn=0.172
+mdn_nb_ppvth_lt=-0.203 mdn_nb_ppvth_rt=-0.504 mdn_nb_npvth_up=0.942 mdn_nb_npvth_dn=0.174
+mdn_no_ppvth_lt=-0.160 mdn_no_ppvth_rt=-0.870 mdn_no_npvth_up=0.162 mdn_no_npvth_dn=0.493
**

** 30 PUF stage
xi29 gnd net58 net59 ch_29 net60 net61 vdd puf_stage
** Vt parameters of the upper MUX2x1
+mup_inv_ppvth=-0.528 mup_inv_npvth=0.862
+mup_na_ppvth_lt=-0.543 mup_na_ppvth_rt=-0.165 mup_na_npvth_up=0.053 mup_na_npvth_dn=0.693
+mup_nb_ppvth_lt=-0.379 mup_nb_ppvth_rt=-0.807 mup_nb_npvth_up=0.211 mup_nb_npvth_dn=0.079
+mup_no_ppvth_lt=-0.033 mup_no_ppvth_rt=-0.538 mup_no_npvth_up=0.333 mup_no_npvth_dn=0.235

** Vt parameters of the lower MUX2x1
+mdn_inv_ppvth=-0.764 mdn_inv_npvth=0.023
+mdn_na_ppvth_lt=-0.261 mdn_na_ppvth_rt=-0.357 mdn_na_npvth_up=0.153 mdn_na_npvth_dn=0.734
+mdn_nb_ppvth_lt=-0.891 mdn_nb_ppvth_rt=-0.816 mdn_nb_npvth_up=0.420 mdn_nb_npvth_dn=0.480
+mdn_no_ppvth_lt=-0.150 mdn_no_ppvth_rt=-0.334 mdn_no_npvth_up=0.434 mdn_no_npvth_dn=0.810
**

** 31 PUF stage
xi30 gnd net60 net61 ch_30 net62 net63 vdd puf_stage
** Vt parameters of the upper MUX2x1
+mup_inv_ppvth=-0.361 mup_inv_npvth=0.230
+mup_na_ppvth_lt=-0.101 mup_na_ppvth_rt=-0.216 mup_na_npvth_up=0.811 mup_na_npvth_dn=1.085
+mup_nb_ppvth_lt=-0.013 mup_nb_ppvth_rt=-0.646 mup_nb_npvth_up=0.731 mup_nb_npvth_dn=0.136
+mup_no_ppvth_lt=-0.414 mup_no_ppvth_rt=-0.391 mup_no_npvth_up=0.252 mup_no_npvth_dn=0.543

** Vt parameters of the lower MUX2x1
+mdn_inv_ppvth=-0.147 mdn_inv_npvth=0.121
+mdn_na_ppvth_lt=-0.215 mdn_na_ppvth_rt=-0.412 mdn_na_npvth_up=0.180 mdn_na_npvth_dn=0.341
+mdn_nb_ppvth_lt=-0.164 mdn_nb_ppvth_rt=-0.007 mdn_nb_npvth_up=0.838 mdn_nb_npvth_dn=0.343
+mdn_no_ppvth_lt=-0.430 mdn_no_ppvth_rt=-0.928 mdn_no_npvth_up=0.263 mdn_no_npvth_dn=0.077
**

** 32 PUF stage
xi31 gnd net62 net63 ch_31 net64 net65 vdd puf_stage
** Vt parameters of the upper MUX2x1
+mup_inv_ppvth=-0.964 mup_inv_npvth=0.465
+mup_na_ppvth_lt=-0.513 mup_na_ppvth_rt=-0.050 mup_na_npvth_up=0.309 mup_na_npvth_dn=0.238
+mup_nb_ppvth_lt=-0.352 mup_nb_ppvth_rt=-0.951 mup_nb_npvth_up=0.116 mup_nb_npvth_dn=0.280
+mup_no_ppvth_lt=-0.465 mup_no_ppvth_rt=-0.025 mup_no_npvth_up=0.470 mup_no_npvth_dn=0.475

** Vt parameters of the lower MUX2x1
+mdn_inv_ppvth=-0.440 mdn_inv_npvth=0.504
+mdn_na_ppvth_lt=-0.171 mdn_na_ppvth_rt=-0.126 mdn_na_npvth_up=0.483 mdn_na_npvth_dn=0.420
+mdn_nb_ppvth_lt=-0.403 mdn_nb_ppvth_rt=-0.486 mdn_nb_npvth_up=0.380 mdn_nb_npvth_dn=0.320
+mdn_no_ppvth_lt=-0.692 mdn_no_ppvth_rt=-0.115 mdn_no_npvth_up=0.734 mdn_no_npvth_dn=0.058
**

** 33 PUF stage
xi32 gnd net64 net65 ch_32 net66 net67 vdd puf_stage
** Vt parameters of the upper MUX2x1
+mup_inv_ppvth=-0.211 mup_inv_npvth=0.007
+mup_na_ppvth_lt=-0.400 mup_na_ppvth_rt=-0.511 mup_na_npvth_up=0.127 mup_na_npvth_dn=0.218
+mup_nb_ppvth_lt=-0.107 mup_nb_ppvth_rt=-0.243 mup_nb_npvth_up=0.338 mup_nb_npvth_dn=1.189
+mup_no_ppvth_lt=-0.386 mup_no_ppvth_rt=-0.582 mup_no_npvth_up=0.572 mup_no_npvth_dn=0.618

** Vt parameters of the lower MUX2x1
+mdn_inv_ppvth=-0.431 mdn_inv_npvth=0.514
+mdn_na_ppvth_lt=-0.519 mdn_na_ppvth_rt=-0.177 mdn_na_npvth_up=0.551 mdn_na_npvth_dn=0.246
+mdn_nb_ppvth_lt=-0.269 mdn_nb_ppvth_rt=-0.447 mdn_nb_npvth_up=0.181 mdn_nb_npvth_dn=0.421
+mdn_no_ppvth_lt=-0.360 mdn_no_ppvth_rt=-0.483 mdn_no_npvth_up=0.304 mdn_no_npvth_dn=0.458
**

** 34 PUF stage
xi33 gnd net66 net67 ch_33 net68 net69 vdd puf_stage
** Vt parameters of the upper MUX2x1
+mup_inv_ppvth=-0.458 mup_inv_npvth=0.377
+mup_na_ppvth_lt=-0.792 mup_na_ppvth_rt=-0.045 mup_na_npvth_up=0.597 mup_na_npvth_dn=0.101
+mup_nb_ppvth_lt=-0.315 mup_nb_ppvth_rt=-0.264 mup_nb_npvth_up=0.135 mup_nb_npvth_dn=0.559
+mup_no_ppvth_lt=-0.896 mup_no_ppvth_rt=-0.350 mup_no_npvth_up=0.615 mup_no_npvth_dn=0.720

** Vt parameters of the lower MUX2x1
+mdn_inv_ppvth=-0.300 mdn_inv_npvth=0.012
+mdn_na_ppvth_lt=-0.165 mdn_na_ppvth_rt=-0.315 mdn_na_npvth_up=0.423 mdn_na_npvth_dn=0.246
+mdn_nb_ppvth_lt=-0.573 mdn_nb_ppvth_rt=-0.347 mdn_nb_npvth_up=0.424 mdn_nb_npvth_dn=0.309
+mdn_no_ppvth_lt=-0.250 mdn_no_ppvth_rt=-0.263 mdn_no_npvth_up=0.906 mdn_no_npvth_dn=0.185
**

** 35 PUF stage
xi34 gnd net68 net69 ch_34 net70 net71 vdd puf_stage
** Vt parameters of the upper MUX2x1
+mup_inv_ppvth=-0.481 mup_inv_npvth=0.218
+mup_na_ppvth_lt=-0.592 mup_na_ppvth_rt=-0.038 mup_na_npvth_up=0.137 mup_na_npvth_dn=0.213
+mup_nb_ppvth_lt=-0.189 mup_nb_ppvth_rt=-0.156 mup_nb_npvth_up=0.422 mup_nb_npvth_dn=0.522
+mup_no_ppvth_lt=-0.376 mup_no_ppvth_rt=-0.250 mup_no_npvth_up=0.335 mup_no_npvth_dn=0.673

** Vt parameters of the lower MUX2x1
+mdn_inv_ppvth=-0.034 mdn_inv_npvth=0.118
+mdn_na_ppvth_lt=-0.502 mdn_na_ppvth_rt=-0.033 mdn_na_npvth_up=0.116 mdn_na_npvth_dn=0.257
+mdn_nb_ppvth_lt=-0.300 mdn_nb_ppvth_rt=-0.323 mdn_nb_npvth_up=0.127 mdn_nb_npvth_dn=0.288
+mdn_no_ppvth_lt=-0.666 mdn_no_ppvth_rt=-0.256 mdn_no_npvth_up=0.219 mdn_no_npvth_dn=0.398
**

** 36 PUF stage
xi35 gnd net70 net71 ch_35 net72 net73 vdd puf_stage
** Vt parameters of the upper MUX2x1
+mup_inv_ppvth=-0.282 mup_inv_npvth=0.458
+mup_na_ppvth_lt=-0.883 mup_na_ppvth_rt=-0.016 mup_na_npvth_up=0.380 mup_na_npvth_dn=0.076
+mup_nb_ppvth_lt=-0.045 mup_nb_ppvth_rt=-0.916 mup_nb_npvth_up=0.290 mup_nb_npvth_dn=0.185
+mup_no_ppvth_lt=-0.036 mup_no_ppvth_rt=-0.261 mup_no_npvth_up=0.558 mup_no_npvth_dn=0.211

** Vt parameters of the lower MUX2x1
+mdn_inv_ppvth=-0.046 mdn_inv_npvth=0.189
+mdn_na_ppvth_lt=-0.039 mdn_na_ppvth_rt=-0.181 mdn_na_npvth_up=0.279 mdn_na_npvth_dn=0.564
+mdn_nb_ppvth_lt=-0.261 mdn_nb_ppvth_rt=-0.562 mdn_nb_npvth_up=0.222 mdn_nb_npvth_dn=0.411
+mdn_no_ppvth_lt=-0.621 mdn_no_ppvth_rt=-0.166 mdn_no_npvth_up=0.294 mdn_no_npvth_dn=0.877
**

** 37 PUF stage
xi36 gnd net72 net73 ch_36 net74 net75 vdd puf_stage
** Vt parameters of the upper MUX2x1
+mup_inv_ppvth=-0.040 mup_inv_npvth=0.075
+mup_na_ppvth_lt=-0.383 mup_na_ppvth_rt=-0.644 mup_na_npvth_up=0.316 mup_na_npvth_dn=0.015
+mup_nb_ppvth_lt=-0.163 mup_nb_ppvth_rt=-0.506 mup_nb_npvth_up=0.066 mup_nb_npvth_dn=0.188
+mup_no_ppvth_lt=-0.755 mup_no_ppvth_rt=-0.461 mup_no_npvth_up=0.737 mup_no_npvth_dn=0.151
