** Generated by pufgen.py for: hspiceD
** Generated on: 07/24/18 13:04:59
** Design library name: pufLib
** Design cell name: puf_0
** Design view name: schematic

** Library name: pufLib
** Cell name: puf_0
** View name: schematic
.subckt puf_0 ch_0 ch_1 ch_2 ch_3 ch_4 ch_5 ch_6 ch_7 ch_8 ch_9 ch_10 ch_11 ch_12 ch_13 ch_14 ch_15 ch_16 ch_17 ch_18 ch_19 ch_20 ch_21 ch_22 ch_23 ch_24 ch_25 ch_26 ch_27 ch_28 ch_29 ch_30 ch_31 ch_32 ch_33 ch_34 ch_35 ch_36 ch_37 ch_38 ch_39 ch_40 ch_41 ch_42 ch_43 ch_44 ch_45 ch_46 ch_47 ch_48 ch_49 ch_50 ch_51 ch_52 ch_53 ch_54 ch_55 ch_56 ch_57 ch_58 ch_59 ch_60 ch_61 ch_62 ch_63 ch_64 ch_65 ch_66 ch_67 ch_68 ch_69 ch_70 ch_71 ch_72 ch_73 ch_74 ch_75 ch_76 ch_77 ch_78 ch_79 ch_80 ch_81 ch_82 ch_83 ch_84 ch_85 ch_86 ch_87 ch_88 ch_89 ch_90 ch_91 ch_92 ch_93 ch_94 ch_95 ch_96 ch_97 ch_98 ch_99 ch_100 ch_101 ch_102 ch_103 ch_104 ch_105 ch_106 ch_107 ch_108 ch_109 ch_110 ch_111 ch_112 ch_113 ch_114 ch_115 ch_116 ch_117 ch_118 ch_119 ch_120 ch_121 ch_122 ch_123 ch_124 ch_125 ch_126 ch_127 gnd in_sig q vdd
** 1 PUF stage
xi0 gnd in_sig in_sig ch_0 net2 net3 vdd puf_stage
** Vt parameters of the upper MUX2x1
+mup_inv_ppvth=-0.708 mup_inv_npvth=0.431
+mup_na_ppvth_lt=-0.140 mup_na_ppvth_rt=-0.081 mup_na_npvth_up=0.166 mup_na_npvth_dn=0.579
+mup_nb_ppvth_lt=-0.628 mup_nb_ppvth_rt=-0.468 mup_nb_npvth_up=0.455 mup_nb_npvth_dn=0.812
+mup_no_ppvth_lt=-0.527 mup_no_ppvth_rt=-0.002 mup_no_npvth_up=1.109 mup_no_npvth_dn=0.212

** Vt parameters of the lower MUX2x1
+mdn_inv_ppvth=-0.183 mdn_inv_npvth=0.688
+mdn_na_ppvth_lt=-0.063 mdn_na_ppvth_rt=-0.889 mdn_na_npvth_up=0.589 mdn_na_npvth_dn=0.034
+mdn_nb_ppvth_lt=-0.443 mdn_nb_ppvth_rt=-0.026 mdn_nb_npvth_up=0.051 mdn_nb_npvth_dn=1.008
+mdn_no_ppvth_lt=-0.585 mdn_no_ppvth_rt=-0.144 mdn_no_npvth_up=0.750 mdn_no_npvth_dn=0.154
**

** 2 PUF stage
xi1 gnd net2 net3 ch_1 net4 net5 vdd puf_stage
** Vt parameters of the upper MUX2x1
+mup_inv_ppvth=-0.200 mup_inv_npvth=0.513
+mup_na_ppvth_lt=-0.700 mup_na_ppvth_rt=-1.011 mup_na_npvth_up=0.011 mup_na_npvth_dn=0.599
+mup_nb_ppvth_lt=-0.501 mup_nb_ppvth_rt=-0.042 mup_nb_npvth_up=0.467 mup_nb_npvth_dn=0.469
+mup_no_ppvth_lt=-0.339 mup_no_ppvth_rt=-0.675 mup_no_npvth_up=0.142 mup_no_npvth_dn=0.679

** Vt parameters of the lower MUX2x1
+mdn_inv_ppvth=-0.278 mdn_inv_npvth=0.426
+mdn_na_ppvth_lt=-0.460 mdn_na_ppvth_rt=-0.623 mdn_na_npvth_up=0.343 mdn_na_npvth_dn=0.600
+mdn_nb_ppvth_lt=-0.313 mdn_nb_ppvth_rt=-0.071 mdn_nb_npvth_up=0.696 mdn_nb_npvth_dn=0.167
+mdn_no_ppvth_lt=-0.736 mdn_no_ppvth_rt=-0.628 mdn_no_npvth_up=0.232 mdn_no_npvth_dn=0.203
**

** 3 PUF stage
xi2 gnd net4 net5 ch_2 net6 net7 vdd puf_stage
** Vt parameters of the upper MUX2x1
+mup_inv_ppvth=-0.634 mup_inv_npvth=0.687
+mup_na_ppvth_lt=-0.890 mup_na_ppvth_rt=-0.414 mup_na_npvth_up=0.091 mup_na_npvth_dn=0.172
+mup_nb_ppvth_lt=-0.181 mup_nb_ppvth_rt=-0.248 mup_nb_npvth_up=0.298 mup_nb_npvth_dn=0.299
+mup_no_ppvth_lt=-1.012 mup_no_ppvth_rt=-0.363 mup_no_npvth_up=0.339 mup_no_npvth_dn=0.021

** Vt parameters of the lower MUX2x1
+mdn_inv_ppvth=-0.322 mdn_inv_npvth=0.106
+mdn_na_ppvth_lt=-0.356 mdn_na_ppvth_rt=-0.115 mdn_na_npvth_up=0.772 mdn_na_npvth_dn=0.391
+mdn_nb_ppvth_lt=-0.248 mdn_nb_ppvth_rt=-0.261 mdn_nb_npvth_up=0.257 mdn_nb_npvth_dn=0.727
+mdn_no_ppvth_lt=-0.181 mdn_no_ppvth_rt=-0.590 mdn_no_npvth_up=0.387 mdn_no_npvth_dn=0.032
**

** 4 PUF stage
xi3 gnd net6 net7 ch_3 net8 net9 vdd puf_stage
** Vt parameters of the upper MUX2x1
+mup_inv_ppvth=-0.855 mup_inv_npvth=0.530
+mup_na_ppvth_lt=-0.528 mup_na_ppvth_rt=-0.414 mup_na_npvth_up=0.964 mup_na_npvth_dn=0.399
+mup_nb_ppvth_lt=-0.217 mup_nb_ppvth_rt=-0.050 mup_nb_npvth_up=0.467 mup_nb_npvth_dn=0.691
+mup_no_ppvth_lt=-0.450 mup_no_ppvth_rt=-0.146 mup_no_npvth_up=0.215 mup_no_npvth_dn=0.674

** Vt parameters of the lower MUX2x1
+mdn_inv_ppvth=-0.052 mdn_inv_npvth=0.088
+mdn_na_ppvth_lt=-0.186 mdn_na_ppvth_rt=-1.221 mdn_na_npvth_up=0.109 mdn_na_npvth_dn=0.345
+mdn_nb_ppvth_lt=-0.844 mdn_nb_ppvth_rt=-0.459 mdn_nb_npvth_up=0.275 mdn_nb_npvth_dn=0.235
+mdn_no_ppvth_lt=-0.318 mdn_no_ppvth_rt=-0.196 mdn_no_npvth_up=0.319 mdn_no_npvth_dn=0.410
**

** 5 PUF stage
xi4 gnd net8 net9 ch_4 net10 net11 vdd puf_stage
** Vt parameters of the upper MUX2x1
+mup_inv_ppvth=-0.406 mup_inv_npvth=0.349
+mup_na_ppvth_lt=-0.701 mup_na_ppvth_rt=-0.048 mup_na_npvth_up=0.065 mup_na_npvth_dn=0.577
+mup_nb_ppvth_lt=-0.116 mup_nb_ppvth_rt=-0.446 mup_nb_npvth_up=0.469 mup_nb_npvth_dn=0.159
+mup_no_ppvth_lt=-0.123 mup_no_ppvth_rt=-0.349 mup_no_npvth_up=0.142 mup_no_npvth_dn=0.131

** Vt parameters of the lower MUX2x1
+mdn_inv_ppvth=-0.540 mdn_inv_npvth=0.263
+mdn_na_ppvth_lt=-0.354 mdn_na_ppvth_rt=-0.318 mdn_na_npvth_up=0.313 mdn_na_npvth_dn=0.037
+mdn_nb_ppvth_lt=-0.413 mdn_nb_ppvth_rt=-0.284 mdn_nb_npvth_up=0.523 mdn_nb_npvth_dn=0.332
+mdn_no_ppvth_lt=-0.295 mdn_no_ppvth_rt=-0.039 mdn_no_npvth_up=0.442 mdn_no_npvth_dn=0.369
**

** 6 PUF stage
xi5 gnd net10 net11 ch_5 net12 net13 vdd puf_stage
** Vt parameters of the upper MUX2x1
+mup_inv_ppvth=-0.189 mup_inv_npvth=0.853
+mup_na_ppvth_lt=-0.170 mup_na_ppvth_rt=-0.864 mup_na_npvth_up=0.150 mup_na_npvth_dn=0.805
+mup_nb_ppvth_lt=-0.176 mup_nb_ppvth_rt=-0.161 mup_nb_npvth_up=0.044 mup_nb_npvth_dn=0.110
+mup_no_ppvth_lt=-0.025 mup_no_ppvth_rt=-0.201 mup_no_npvth_up=0.460 mup_no_npvth_dn=0.531

** Vt parameters of the lower MUX2x1
+mdn_inv_ppvth=-0.680 mdn_inv_npvth=0.031
+mdn_na_ppvth_lt=-0.269 mdn_na_ppvth_rt=-0.035 mdn_na_npvth_up=0.079 mdn_na_npvth_dn=1.166
+mdn_nb_ppvth_lt=-0.056 mdn_nb_ppvth_rt=-0.371 mdn_nb_npvth_up=0.736 mdn_nb_npvth_dn=0.608
+mdn_no_ppvth_lt=-0.603 mdn_no_ppvth_rt=-0.124 mdn_no_npvth_up=0.183 mdn_no_npvth_dn=0.518
**

** 7 PUF stage
xi6 gnd net12 net13 ch_6 net14 net15 vdd puf_stage
** Vt parameters of the upper MUX2x1
+mup_inv_ppvth=-0.241 mup_inv_npvth=0.035
+mup_na_ppvth_lt=-0.237 mup_na_ppvth_rt=-0.565 mup_na_npvth_up=0.424 mup_na_npvth_dn=0.019
+mup_nb_ppvth_lt=-0.518 mup_nb_ppvth_rt=-0.360 mup_nb_npvth_up=0.883 mup_nb_npvth_dn=0.758
+mup_no_ppvth_lt=-0.644 mup_no_ppvth_rt=-0.220 mup_no_npvth_up=0.476 mup_no_npvth_dn=0.364

** Vt parameters of the lower MUX2x1
+mdn_inv_ppvth=-0.152 mdn_inv_npvth=0.406
+mdn_na_ppvth_lt=-0.341 mdn_na_ppvth_rt=-0.239 mdn_na_npvth_up=0.428 mdn_na_npvth_dn=0.299
+mdn_nb_ppvth_lt=-0.788 mdn_nb_ppvth_rt=-0.664 mdn_nb_npvth_up=0.462 mdn_nb_npvth_dn=0.347
+mdn_no_ppvth_lt=-0.453 mdn_no_ppvth_rt=-0.241 mdn_no_npvth_up=0.353 mdn_no_npvth_dn=0.216
**

** 8 PUF stage
xi7 gnd net14 net15 ch_7 net16 net17 vdd puf_stage
** Vt parameters of the upper MUX2x1
+mup_inv_ppvth=-0.032 mup_inv_npvth=0.400
+mup_na_ppvth_lt=-0.085 mup_na_ppvth_rt=-0.649 mup_na_npvth_up=0.540 mup_na_npvth_dn=0.131
+mup_nb_ppvth_lt=-0.082 mup_nb_ppvth_rt=-0.157 mup_nb_npvth_up=0.115 mup_nb_npvth_dn=0.648
+mup_no_ppvth_lt=-0.155 mup_no_ppvth_rt=-0.572 mup_no_npvth_up=0.116 mup_no_npvth_dn=0.167

** Vt parameters of the lower MUX2x1
+mdn_inv_ppvth=-0.978 mdn_inv_npvth=0.428
+mdn_na_ppvth_lt=-1.096 mdn_na_ppvth_rt=-0.366 mdn_na_npvth_up=0.510 mdn_na_npvth_dn=0.681
+mdn_nb_ppvth_lt=-0.091 mdn_nb_ppvth_rt=-0.273 mdn_nb_npvth_up=0.289 mdn_nb_npvth_dn=0.605
+mdn_no_ppvth_lt=-0.128 mdn_no_ppvth_rt=-0.021 mdn_no_npvth_up=0.264 mdn_no_npvth_dn=0.424
**

** 9 PUF stage
xi8 gnd net16 net17 ch_8 net18 net19 vdd puf_stage
** Vt parameters of the upper MUX2x1
+mup_inv_ppvth=-0.086 mup_inv_npvth=0.861
+mup_na_ppvth_lt=-0.135 mup_na_ppvth_rt=-0.093 mup_na_npvth_up=0.501 mup_na_npvth_dn=0.427
+mup_nb_ppvth_lt=-0.253 mup_nb_ppvth_rt=-0.086 mup_nb_npvth_up=0.047 mup_nb_npvth_dn=0.710
+mup_no_ppvth_lt=-0.019 mup_no_ppvth_rt=-0.780 mup_no_npvth_up=0.111 mup_no_npvth_dn=0.813

** Vt parameters of the lower MUX2x1
+mdn_inv_ppvth=-0.023 mdn_inv_npvth=0.618
+mdn_na_ppvth_lt=-0.045 mdn_na_ppvth_rt=-0.311 mdn_na_npvth_up=0.576 mdn_na_npvth_dn=0.875
+mdn_nb_ppvth_lt=-0.763 mdn_nb_ppvth_rt=-0.607 mdn_nb_npvth_up=0.085 mdn_nb_npvth_dn=0.112
+mdn_no_ppvth_lt=-0.663 mdn_no_ppvth_rt=-0.033 mdn_no_npvth_up=0.699 mdn_no_npvth_dn=0.389
**

** 10 PUF stage
xi9 gnd net18 net19 ch_9 net20 net21 vdd puf_stage
** Vt parameters of the upper MUX2x1
+mup_inv_ppvth=-0.098 mup_inv_npvth=0.628
+mup_na_ppvth_lt=-0.668 mup_na_ppvth_rt=-0.128 mup_na_npvth_up=0.477 mup_na_npvth_dn=0.115
+mup_nb_ppvth_lt=-0.038 mup_nb_ppvth_rt=-0.166 mup_nb_npvth_up=0.868 mup_nb_npvth_dn=0.432
+mup_no_ppvth_lt=-0.214 mup_no_ppvth_rt=-0.317 mup_no_npvth_up=0.201 mup_no_npvth_dn=0.339

** Vt parameters of the lower MUX2x1
+mdn_inv_ppvth=-0.151 mdn_inv_npvth=0.012
+mdn_na_ppvth_lt=-0.130 mdn_na_ppvth_rt=-0.129 mdn_na_npvth_up=0.422 mdn_na_npvth_dn=0.248
+mdn_nb_ppvth_lt=-0.237 mdn_nb_ppvth_rt=-0.040 mdn_nb_npvth_up=0.305 mdn_nb_npvth_dn=0.484
+mdn_no_ppvth_lt=-0.126 mdn_no_ppvth_rt=-0.298 mdn_no_npvth_up=0.563 mdn_no_npvth_dn=0.349
**

** 11 PUF stage
xi10 gnd net20 net21 ch_10 net22 net23 vdd puf_stage
** Vt parameters of the upper MUX2x1
+mup_inv_ppvth=-0.234 mup_inv_npvth=0.131
+mup_na_ppvth_lt=-0.266 mup_na_ppvth_rt=-0.098 mup_na_npvth_up=0.405 mup_na_npvth_dn=0.438
+mup_nb_ppvth_lt=-0.579 mup_nb_ppvth_rt=-0.672 mup_nb_npvth_up=0.070 mup_nb_npvth_dn=0.684
+mup_no_ppvth_lt=-0.291 mup_no_ppvth_rt=-0.528 mup_no_npvth_up=0.275 mup_no_npvth_dn=0.599

** Vt parameters of the lower MUX2x1
+mdn_inv_ppvth=-0.228 mdn_inv_npvth=0.596
+mdn_na_ppvth_lt=-0.493 mdn_na_ppvth_rt=-0.174 mdn_na_npvth_up=0.450 mdn_na_npvth_dn=0.329
+mdn_nb_ppvth_lt=-0.036 mdn_nb_ppvth_rt=-0.394 mdn_nb_npvth_up=0.519 mdn_nb_npvth_dn=0.426
+mdn_no_ppvth_lt=-0.089 mdn_no_ppvth_rt=-0.226 mdn_no_npvth_up=0.385 mdn_no_npvth_dn=0.650
**

** 12 PUF stage
xi11 gnd net22 net23 ch_11 net24 net25 vdd puf_stage
** Vt parameters of the upper MUX2x1
+mup_inv_ppvth=-0.090 mup_inv_npvth=0.773
+mup_na_ppvth_lt=-0.099 mup_na_ppvth_rt=-0.397 mup_na_npvth_up=0.420 mup_na_npvth_dn=0.217
+mup_nb_ppvth_lt=-0.301 mup_nb_ppvth_rt=-0.174 mup_nb_npvth_up=0.252 mup_nb_npvth_dn=0.357
+mup_no_ppvth_lt=-0.023 mup_no_ppvth_rt=-0.125 mup_no_npvth_up=0.259 mup_no_npvth_dn=0.387

** Vt parameters of the lower MUX2x1
+mdn_inv_ppvth=-0.344 mdn_inv_npvth=0.765
+mdn_na_ppvth_lt=-0.086 mdn_na_ppvth_rt=-0.190 mdn_na_npvth_up=0.598 mdn_na_npvth_dn=0.496
+mdn_nb_ppvth_lt=-0.441 mdn_nb_ppvth_rt=-0.342 mdn_nb_npvth_up=0.651 mdn_nb_npvth_dn=0.778
+mdn_no_ppvth_lt=-0.325 mdn_no_ppvth_rt=-0.137 mdn_no_npvth_up=0.137 mdn_no_npvth_dn=0.082
**

** 13 PUF stage
xi12 gnd net24 net25 ch_12 net26 net27 vdd puf_stage
** Vt parameters of the upper MUX2x1
+mup_inv_ppvth=-0.049 mup_inv_npvth=0.448
+mup_na_ppvth_lt=-0.121 mup_na_ppvth_rt=-0.413 mup_na_npvth_up=0.104 mup_na_npvth_dn=0.356
+mup_nb_ppvth_lt=-0.113 mup_nb_ppvth_rt=-0.328 mup_nb_npvth_up=0.126 mup_nb_npvth_dn=0.444
+mup_no_ppvth_lt=-0.328 mup_no_ppvth_rt=-0.083 mup_no_npvth_up=0.354 mup_no_npvth_dn=0.473

** Vt parameters of the lower MUX2x1
+mdn_inv_ppvth=-0.348 mdn_inv_npvth=0.053
+mdn_na_ppvth_lt=-0.045 mdn_na_ppvth_rt=-0.996 mdn_na_npvth_up=0.231 mdn_na_npvth_dn=0.123
+mdn_nb_ppvth_lt=-0.132 mdn_nb_ppvth_rt=-0.176 mdn_nb_npvth_up=0.154 mdn_nb_npvth_dn=0.372
+mdn_no_ppvth_lt=-0.554 mdn_no_ppvth_rt=-0.522 mdn_no_npvth_up=0.092 mdn_no_npvth_dn=0.206
**

** 14 PUF stage
xi13 gnd net26 net27 ch_13 net28 net29 vdd puf_stage
** Vt parameters of the upper MUX2x1
+mup_inv_ppvth=-0.275 mup_inv_npvth=0.069
+mup_na_ppvth_lt=-0.900 mup_na_ppvth_rt=-0.092 mup_na_npvth_up=0.299 mup_na_npvth_dn=0.695
+mup_nb_ppvth_lt=-0.473 mup_nb_ppvth_rt=-0.796 mup_nb_npvth_up=0.218 mup_nb_npvth_dn=0.540
+mup_no_ppvth_lt=-0.322 mup_no_ppvth_rt=-0.130 mup_no_npvth_up=0.549 mup_no_npvth_dn=0.234

** Vt parameters of the lower MUX2x1
+mdn_inv_ppvth=-0.511 mdn_inv_npvth=0.847
+mdn_na_ppvth_lt=-0.167 mdn_na_ppvth_rt=-0.346 mdn_na_npvth_up=0.658 mdn_na_npvth_dn=0.107
+mdn_nb_ppvth_lt=-0.467 mdn_nb_ppvth_rt=-0.243 mdn_nb_npvth_up=0.674 mdn_nb_npvth_dn=0.487
+mdn_no_ppvth_lt=-0.404 mdn_no_ppvth_rt=-0.098 mdn_no_npvth_up=0.268 mdn_no_npvth_dn=0.949
**

** 15 PUF stage
xi14 gnd net28 net29 ch_14 net30 net31 vdd puf_stage
** Vt parameters of the upper MUX2x1
+mup_inv_ppvth=-1.216 mup_inv_npvth=0.383
+mup_na_ppvth_lt=-0.532 mup_na_ppvth_rt=-0.488 mup_na_npvth_up=0.124 mup_na_npvth_dn=0.571
+mup_nb_ppvth_lt=-0.256 mup_nb_ppvth_rt=-0.395 mup_nb_npvth_up=0.344 mup_nb_npvth_dn=0.319
+mup_no_ppvth_lt=-0.406 mup_no_ppvth_rt=-0.172 mup_no_npvth_up=0.492 mup_no_npvth_dn=0.114

** Vt parameters of the lower MUX2x1
+mdn_inv_ppvth=-0.003 mdn_inv_npvth=0.360
+mdn_na_ppvth_lt=-0.296 mdn_na_ppvth_rt=-0.057 mdn_na_npvth_up=0.569 mdn_na_npvth_dn=0.178
+mdn_nb_ppvth_lt=-0.449 mdn_nb_ppvth_rt=-0.650 mdn_nb_npvth_up=0.458 mdn_nb_npvth_dn=0.423
+mdn_no_ppvth_lt=-0.201 mdn_no_ppvth_rt=-0.863 mdn_no_npvth_up=0.205 mdn_no_npvth_dn=0.075
**

** 16 PUF stage
xi15 gnd net30 net31 ch_15 net32 net33 vdd puf_stage
** Vt parameters of the upper MUX2x1
+mup_inv_ppvth=-0.845 mup_inv_npvth=0.083
+mup_na_ppvth_lt=-0.114 mup_na_ppvth_rt=-0.198 mup_na_npvth_up=0.023 mup_na_npvth_dn=0.305
+mup_nb_ppvth_lt=-0.588 mup_nb_ppvth_rt=-0.586 mup_nb_npvth_up=0.447 mup_nb_npvth_dn=0.327
+mup_no_ppvth_lt=-0.193 mup_no_ppvth_rt=-0.352 mup_no_npvth_up=0.431 mup_no_npvth_dn=0.357

** Vt parameters of the lower MUX2x1
+mdn_inv_ppvth=-0.073 mdn_inv_npvth=0.182
+mdn_na_ppvth_lt=-0.268 mdn_na_ppvth_rt=-0.771 mdn_na_npvth_up=0.041 mdn_na_npvth_dn=0.536
+mdn_nb_ppvth_lt=-0.154 mdn_nb_ppvth_rt=-0.644 mdn_nb_npvth_up=0.885 mdn_nb_npvth_dn=0.150
+mdn_no_ppvth_lt=-0.458 mdn_no_ppvth_rt=-0.561 mdn_no_npvth_up=0.267 mdn_no_npvth_dn=0.022
**

** 17 PUF stage
xi16 gnd net32 net33 ch_16 net34 net35 vdd puf_stage
** Vt parameters of the upper MUX2x1
+mup_inv_ppvth=-0.329 mup_inv_npvth=0.203
+mup_na_ppvth_lt=-0.275 mup_na_ppvth_rt=-0.039 mup_na_npvth_up=0.081 mup_na_npvth_dn=0.510
+mup_nb_ppvth_lt=-0.142 mup_nb_ppvth_rt=-0.583 mup_nb_npvth_up=0.171 mup_nb_npvth_dn=0.578
+mup_no_ppvth_lt=-0.877 mup_no_ppvth_rt=-0.228 mup_no_npvth_up=0.024 mup_no_npvth_dn=0.623

** Vt parameters of the lower MUX2x1
+mdn_inv_ppvth=-0.740 mdn_inv_npvth=0.108
+mdn_na_ppvth_lt=-0.126 mdn_na_ppvth_rt=-0.342 mdn_na_npvth_up=0.517 mdn_na_npvth_dn=0.118
+mdn_nb_ppvth_lt=-0.531 mdn_nb_ppvth_rt=-0.332 mdn_nb_npvth_up=0.528 mdn_nb_npvth_dn=0.167
+mdn_no_ppvth_lt=-0.182 mdn_no_ppvth_rt=-0.479 mdn_no_npvth_up=0.072 mdn_no_npvth_dn=0.544
**

** 18 PUF stage
xi17 gnd net34 net35 ch_17 net36 net37 vdd puf_stage
** Vt parameters of the upper MUX2x1
+mup_inv_ppvth=-0.240 mup_inv_npvth=0.402
+mup_na_ppvth_lt=-0.056 mup_na_ppvth_rt=-0.325 mup_na_npvth_up=0.300 mup_na_npvth_dn=0.238
+mup_nb_ppvth_lt=-0.236 mup_nb_ppvth_rt=-0.929 mup_nb_npvth_up=0.694 mup_nb_npvth_dn=0.131
+mup_no_ppvth_lt=-0.236 mup_no_ppvth_rt=-0.686 mup_no_npvth_up=0.134 mup_no_npvth_dn=0.710

** Vt parameters of the lower MUX2x1
+mdn_inv_ppvth=-0.370 mdn_inv_npvth=0.047
+mdn_na_ppvth_lt=-0.864 mdn_na_ppvth_rt=-0.173 mdn_na_npvth_up=0.812 mdn_na_npvth_dn=0.308
+mdn_nb_ppvth_lt=-0.385 mdn_nb_ppvth_rt=-0.797 mdn_nb_npvth_up=0.890 mdn_nb_npvth_dn=0.174
+mdn_no_ppvth_lt=-0.142 mdn_no_ppvth_rt=-0.431 mdn_no_npvth_up=0.304 mdn_no_npvth_dn=0.697
**

** 19 PUF stage
xi18 gnd net36 net37 ch_18 net38 net39 vdd puf_stage
** Vt parameters of the upper MUX2x1
+mup_inv_ppvth=-0.287 mup_inv_npvth=0.194
+mup_na_ppvth_lt=-0.108 mup_na_ppvth_rt=-0.310 mup_na_npvth_up=0.155 mup_na_npvth_dn=0.057
+mup_nb_ppvth_lt=-0.105 mup_nb_ppvth_rt=-0.732 mup_nb_npvth_up=0.478 mup_nb_npvth_dn=0.464
+mup_no_ppvth_lt=-0.213 mup_no_ppvth_rt=-0.525 mup_no_npvth_up=0.556 mup_no_npvth_dn=0.087

** Vt parameters of the lower MUX2x1
+mdn_inv_ppvth=-0.076 mdn_inv_npvth=0.208
+mdn_na_ppvth_lt=-0.479 mdn_na_ppvth_rt=-0.100 mdn_na_npvth_up=0.672 mdn_na_npvth_dn=0.740
+mdn_nb_ppvth_lt=-0.128 mdn_nb_ppvth_rt=-0.249 mdn_nb_npvth_up=1.226 mdn_nb_npvth_dn=0.559
+mdn_no_ppvth_lt=-0.221 mdn_no_ppvth_rt=-0.407 mdn_no_npvth_up=0.223 mdn_no_npvth_dn=0.477
**

** 20 PUF stage
xi19 gnd net38 net39 ch_19 net40 net41 vdd puf_stage
** Vt parameters of the upper MUX2x1
+mup_inv_ppvth=-0.040 mup_inv_npvth=0.443
+mup_na_ppvth_lt=-0.114 mup_na_ppvth_rt=-0.095 mup_na_npvth_up=0.688 mup_na_npvth_dn=0.145
+mup_nb_ppvth_lt=-0.464 mup_nb_ppvth_rt=-0.111 mup_nb_npvth_up=0.389 mup_nb_npvth_dn=0.341
+mup_no_ppvth_lt=-0.251 mup_no_ppvth_rt=-0.241 mup_no_npvth_up=0.302 mup_no_npvth_dn=0.243

** Vt parameters of the lower MUX2x1
+mdn_inv_ppvth=-0.339 mdn_inv_npvth=0.347
+mdn_na_ppvth_lt=-0.141 mdn_na_ppvth_rt=-0.740 mdn_na_npvth_up=0.025 mdn_na_npvth_dn=0.225
+mdn_nb_ppvth_lt=-0.366 mdn_nb_ppvth_rt=-1.071 mdn_nb_npvth_up=0.142 mdn_nb_npvth_dn=0.298
+mdn_no_ppvth_lt=-0.281 mdn_no_ppvth_rt=-0.184 mdn_no_npvth_up=0.702 mdn_no_npvth_dn=0.641
**

** 21 PUF stage
xi20 gnd net40 net41 ch_20 net42 net43 vdd puf_stage
** Vt parameters of the upper MUX2x1
+mup_inv_ppvth=-0.412 mup_inv_npvth=0.407
+mup_na_ppvth_lt=-0.200 mup_na_ppvth_rt=-0.395 mup_na_npvth_up=0.301 mup_na_npvth_dn=0.103
+mup_nb_ppvth_lt=-0.346 mup_nb_ppvth_rt=-0.386 mup_nb_npvth_up=0.255 mup_nb_npvth_dn=0.486
+mup_no_ppvth_lt=-0.345 mup_no_ppvth_rt=-0.154 mup_no_npvth_up=0.383 mup_no_npvth_dn=0.370

** Vt parameters of the lower MUX2x1
+mdn_inv_ppvth=-0.300 mdn_inv_npvth=0.124
+mdn_na_ppvth_lt=-0.196 mdn_na_ppvth_rt=-0.022 mdn_na_npvth_up=0.285 mdn_na_npvth_dn=0.652
+mdn_nb_ppvth_lt=-0.396 mdn_nb_ppvth_rt=-0.020 mdn_nb_npvth_up=0.023 mdn_nb_npvth_dn=0.718
+mdn_no_ppvth_lt=-0.274 mdn_no_ppvth_rt=-0.405 mdn_no_npvth_up=0.329 mdn_no_npvth_dn=0.153
**

** 22 PUF stage
xi21 gnd net42 net43 ch_21 net44 net45 vdd puf_stage
** Vt parameters of the upper MUX2x1
+mup_inv_ppvth=-0.199 mup_inv_npvth=0.000
+mup_na_ppvth_lt=-0.092 mup_na_ppvth_rt=-0.580 mup_na_npvth_up=0.095 mup_na_npvth_dn=0.207
+mup_nb_ppvth_lt=-0.522 mup_nb_ppvth_rt=-0.068 mup_nb_npvth_up=0.620 mup_nb_npvth_dn=0.832
+mup_no_ppvth_lt=-0.560 mup_no_ppvth_rt=-0.029 mup_no_npvth_up=0.314 mup_no_npvth_dn=0.493

** Vt parameters of the lower MUX2x1
+mdn_inv_ppvth=-0.335 mdn_inv_npvth=0.341
+mdn_na_ppvth_lt=-0.513 mdn_na_ppvth_rt=-0.062 mdn_na_npvth_up=0.489 mdn_na_npvth_dn=0.381
+mdn_nb_ppvth_lt=-0.424 mdn_nb_ppvth_rt=-0.197 mdn_nb_npvth_up=0.196 mdn_nb_npvth_dn=0.182
+mdn_no_ppvth_lt=-0.244 mdn_no_ppvth_rt=-0.509 mdn_no_npvth_up=0.480 mdn_no_npvth_dn=0.571
**

** 23 PUF stage
xi22 gnd net44 net45 ch_22 net46 net47 vdd puf_stage
** Vt parameters of the upper MUX2x1
+mup_inv_ppvth=-0.487 mup_inv_npvth=0.432
+mup_na_ppvth_lt=-0.811 mup_na_ppvth_rt=-0.488 mup_na_npvth_up=0.330 mup_na_npvth_dn=0.401
+mup_nb_ppvth_lt=-0.079 mup_nb_ppvth_rt=-0.017 mup_nb_npvth_up=0.340 mup_nb_npvth_dn=0.667
+mup_no_ppvth_lt=-0.648 mup_no_ppvth_rt=-0.073 mup_no_npvth_up=0.004 mup_no_npvth_dn=0.534

** Vt parameters of the lower MUX2x1
+mdn_inv_ppvth=-0.176 mdn_inv_npvth=0.139
+mdn_na_ppvth_lt=-0.151 mdn_na_ppvth_rt=-0.083 mdn_na_npvth_up=0.138 mdn_na_npvth_dn=0.768
+mdn_nb_ppvth_lt=-0.856 mdn_nb_ppvth_rt=-0.799 mdn_nb_npvth_up=0.359 mdn_nb_npvth_dn=0.259
+mdn_no_ppvth_lt=-0.011 mdn_no_ppvth_rt=-0.417 mdn_no_npvth_up=0.560 mdn_no_npvth_dn=0.311
**

** 24 PUF stage
xi23 gnd net46 net47 ch_23 net48 net49 vdd puf_stage
** Vt parameters of the upper MUX2x1
+mup_inv_ppvth=-0.456 mup_inv_npvth=0.439
+mup_na_ppvth_lt=-0.697 mup_na_ppvth_rt=-0.351 mup_na_npvth_up=0.590 mup_na_npvth_dn=0.177
+mup_nb_ppvth_lt=-0.630 mup_nb_ppvth_rt=-0.630 mup_nb_npvth_up=0.332 mup_nb_npvth_dn=0.175
+mup_no_ppvth_lt=-0.209 mup_no_ppvth_rt=-0.246 mup_no_npvth_up=0.316 mup_no_npvth_dn=0.189

** Vt parameters of the lower MUX2x1
+mdn_inv_ppvth=-0.660 mdn_inv_npvth=0.441
+mdn_na_ppvth_lt=-0.016 mdn_na_ppvth_rt=-0.551 mdn_na_npvth_up=0.186 mdn_na_npvth_dn=0.209
+mdn_nb_ppvth_lt=-0.026 mdn_nb_ppvth_rt=-0.120 mdn_nb_npvth_up=0.239 mdn_nb_npvth_dn=0.122
+mdn_no_ppvth_lt=-0.311 mdn_no_ppvth_rt=-1.158 mdn_no_npvth_up=0.351 mdn_no_npvth_dn=0.066
**

** 25 PUF stage
xi24 gnd net48 net49 ch_24 net50 net51 vdd puf_stage
** Vt parameters of the upper MUX2x1
+mup_inv_ppvth=-0.356 mup_inv_npvth=0.572
+mup_na_ppvth_lt=-0.642 mup_na_ppvth_rt=-0.153 mup_na_npvth_up=0.444 mup_na_npvth_dn=0.411
+mup_nb_ppvth_lt=-0.784 mup_nb_ppvth_rt=-0.520 mup_nb_npvth_up=0.139 mup_nb_npvth_dn=0.348
+mup_no_ppvth_lt=-0.255 mup_no_ppvth_rt=-0.605 mup_no_npvth_up=0.383 mup_no_npvth_dn=0.528

** Vt parameters of the lower MUX2x1
+mdn_inv_ppvth=-0.099 mdn_inv_npvth=0.506
+mdn_na_ppvth_lt=-0.146 mdn_na_ppvth_rt=-0.372 mdn_na_npvth_up=0.433 mdn_na_npvth_dn=0.367
+mdn_nb_ppvth_lt=-0.120 mdn_nb_ppvth_rt=-0.242 mdn_nb_npvth_up=0.388 mdn_nb_npvth_dn=0.277
+mdn_no_ppvth_lt=-0.141 mdn_no_ppvth_rt=-0.193 mdn_no_npvth_up=0.153 mdn_no_npvth_dn=0.758
**

** 26 PUF stage
xi25 gnd net50 net51 ch_25 net52 net53 vdd puf_stage
** Vt parameters of the upper MUX2x1
+mup_inv_ppvth=-1.076 mup_inv_npvth=0.569
+mup_na_ppvth_lt=-0.512 mup_na_ppvth_rt=-0.238 mup_na_npvth_up=0.350 mup_na_npvth_dn=0.537
+mup_nb_ppvth_lt=-0.786 mup_nb_ppvth_rt=-0.537 mup_nb_npvth_up=0.375 mup_nb_npvth_dn=0.509
+mup_no_ppvth_lt=-0.850 mup_no_ppvth_rt=-0.207 mup_no_npvth_up=0.065 mup_no_npvth_dn=0.232

** Vt parameters of the lower MUX2x1
+mdn_inv_ppvth=-0.013 mdn_inv_npvth=0.256
+mdn_na_ppvth_lt=-0.591 mdn_na_ppvth_rt=-0.430 mdn_na_npvth_up=0.322 mdn_na_npvth_dn=0.272
+mdn_nb_ppvth_lt=-0.358 mdn_nb_ppvth_rt=-0.021 mdn_nb_npvth_up=0.292 mdn_nb_npvth_dn=0.589
+mdn_no_ppvth_lt=-0.224 mdn_no_ppvth_rt=-0.025 mdn_no_npvth_up=0.088 mdn_no_npvth_dn=0.448
**

** 27 PUF stage
xi26 gnd net52 net53 ch_26 net54 net55 vdd puf_stage
** Vt parameters of the upper MUX2x1
+mup_inv_ppvth=-0.410 mup_inv_npvth=0.021
+mup_na_ppvth_lt=-1.171 mup_na_ppvth_rt=-0.869 mup_na_npvth_up=0.492 mup_na_npvth_dn=0.042
+mup_nb_ppvth_lt=-0.679 mup_nb_ppvth_rt=-0.374 mup_nb_npvth_up=0.676 mup_nb_npvth_dn=0.803
+mup_no_ppvth_lt=-0.257 mup_no_ppvth_rt=-0.019 mup_no_npvth_up=0.204 mup_no_npvth_dn=0.569

** Vt parameters of the lower MUX2x1
+mdn_inv_ppvth=-0.440 mdn_inv_npvth=0.013
+mdn_na_ppvth_lt=-0.312 mdn_na_ppvth_rt=-0.006 mdn_na_npvth_up=0.334 mdn_na_npvth_dn=0.233
+mdn_nb_ppvth_lt=-0.123 mdn_nb_ppvth_rt=-0.615 mdn_nb_npvth_up=0.208 mdn_nb_npvth_dn=0.388
+mdn_no_ppvth_lt=-0.271 mdn_no_ppvth_rt=-0.800 mdn_no_npvth_up=0.563 mdn_no_npvth_dn=0.530
**

** 28 PUF stage
xi27 gnd net54 net55 ch_27 net56 net57 vdd puf_stage
** Vt parameters of the upper MUX2x1
+mup_inv_ppvth=-0.357 mup_inv_npvth=0.464
+mup_na_ppvth_lt=-0.068 mup_na_ppvth_rt=-0.733 mup_na_npvth_up=0.106 mup_na_npvth_dn=0.372
+mup_nb_ppvth_lt=-0.435 mup_nb_ppvth_rt=-0.344 mup_nb_npvth_up=0.487 mup_nb_npvth_dn=0.434
+mup_no_ppvth_lt=-0.281 mup_no_ppvth_rt=-0.223 mup_no_npvth_up=0.537 mup_no_npvth_dn=0.309

** Vt parameters of the lower MUX2x1
+mdn_inv_ppvth=-0.142 mdn_inv_npvth=0.699
+mdn_na_ppvth_lt=-0.590 mdn_na_ppvth_rt=-0.766 mdn_na_npvth_up=0.305 mdn_na_npvth_dn=0.592
+mdn_nb_ppvth_lt=-0.115 mdn_nb_ppvth_rt=-0.660 mdn_nb_npvth_up=0.462 mdn_nb_npvth_dn=0.292
+mdn_no_ppvth_lt=-0.615 mdn_no_ppvth_rt=-0.048 mdn_no_npvth_up=0.273 mdn_no_npvth_dn=0.616
**

** 29 PUF stage
xi28 gnd net56 net57 ch_28 net58 net59 vdd puf_stage
** Vt parameters of the upper MUX2x1
+mup_inv_ppvth=-0.161 mup_inv_npvth=0.333
+mup_na_ppvth_lt=-0.215 mup_na_ppvth_rt=-0.739 mup_na_npvth_up=0.386 mup_na_npvth_dn=0.197
+mup_nb_ppvth_lt=-0.061 mup_nb_ppvth_rt=-0.198 mup_nb_npvth_up=0.702 mup_nb_npvth_dn=0.392
+mup_no_ppvth_lt=-0.746 mup_no_ppvth_rt=-0.069 mup_no_npvth_up=0.082 mup_no_npvth_dn=0.307

** Vt parameters of the lower MUX2x1
+mdn_inv_ppvth=-0.516 mdn_inv_npvth=0.336
+mdn_na_ppvth_lt=-0.597 mdn_na_ppvth_rt=-1.000 mdn_na_npvth_up=0.216 mdn_na_npvth_dn=0.002
+mdn_nb_ppvth_lt=-0.006 mdn_nb_ppvth_rt=-0.123 mdn_nb_npvth_up=0.156 mdn_nb_npvth_dn=0.479
+mdn_no_ppvth_lt=-0.568 mdn_no_ppvth_rt=-0.466 mdn_no_npvth_up=0.575 mdn_no_npvth_dn=0.742
**

** 30 PUF stage
xi29 gnd net58 net59 ch_29 net60 net61 vdd puf_stage
** Vt parameters of the upper MUX2x1
+mup_inv_ppvth=-0.790 mup_inv_npvth=0.269
+mup_na_ppvth_lt=-0.203 mup_na_ppvth_rt=-0.194 mup_na_npvth_up=0.506 mup_na_npvth_dn=0.416
+mup_nb_ppvth_lt=-0.258 mup_nb_ppvth_rt=-0.403 mup_nb_npvth_up=0.366 mup_nb_npvth_dn=0.055
+mup_no_ppvth_lt=-0.528 mup_no_ppvth_rt=-0.472 mup_no_npvth_up=0.434 mup_no_npvth_dn=0.297

** Vt parameters of the lower MUX2x1
+mdn_inv_ppvth=-0.351 mdn_inv_npvth=0.300
+mdn_na_ppvth_lt=-0.588 mdn_na_ppvth_rt=-0.284 mdn_na_npvth_up=0.095 mdn_na_npvth_dn=0.561
+mdn_nb_ppvth_lt=-0.418 mdn_nb_ppvth_rt=-0.669 mdn_nb_npvth_up=0.043 mdn_nb_npvth_dn=0.834
+mdn_no_ppvth_lt=-0.279 mdn_no_ppvth_rt=-0.252 mdn_no_npvth_up=0.249 mdn_no_npvth_dn=0.421
**

** 31 PUF stage
xi30 gnd net60 net61 ch_30 net62 net63 vdd puf_stage
** Vt parameters of the upper MUX2x1
+mup_inv_ppvth=-0.037 mup_inv_npvth=0.254
+mup_na_ppvth_lt=-0.176 mup_na_ppvth_rt=-0.305 mup_na_npvth_up=0.547 mup_na_npvth_dn=0.522
+mup_nb_ppvth_lt=-0.154 mup_nb_ppvth_rt=-0.074 mup_nb_npvth_up=0.614 mup_nb_npvth_dn=0.180
+mup_no_ppvth_lt=-0.620 mup_no_ppvth_rt=-0.642 mup_no_npvth_up=0.528 mup_no_npvth_dn=0.585

** Vt parameters of the lower MUX2x1
+mdn_inv_ppvth=-0.152 mdn_inv_npvth=0.142
+mdn_na_ppvth_lt=-0.713 mdn_na_ppvth_rt=-0.694 mdn_na_npvth_up=0.456 mdn_na_npvth_dn=0.093
+mdn_nb_ppvth_lt=-0.015 mdn_nb_ppvth_rt=-0.172 mdn_nb_npvth_up=0.240 mdn_nb_npvth_dn=0.471
+mdn_no_ppvth_lt=-0.863 mdn_no_ppvth_rt=-0.351 mdn_no_npvth_up=0.493 mdn_no_npvth_dn=0.354
**

** 32 PUF stage
xi31 gnd net62 net63 ch_31 net64 net65 vdd puf_stage
** Vt parameters of the upper MUX2x1
+mup_inv_ppvth=-0.420 mup_inv_npvth=0.252
+mup_na_ppvth_lt=-0.132 mup_na_ppvth_rt=-0.922 mup_na_npvth_up=0.077 mup_na_npvth_dn=0.149
+mup_nb_ppvth_lt=-0.063 mup_nb_ppvth_rt=-0.469 mup_nb_npvth_up=0.627 mup_nb_npvth_dn=0.181
+mup_no_ppvth_lt=-1.081 mup_no_ppvth_rt=-0.362 mup_no_npvth_up=0.053 mup_no_npvth_dn=0.852

** Vt parameters of the lower MUX2x1
+mdn_inv_ppvth=-0.241 mdn_inv_npvth=0.782
+mdn_na_ppvth_lt=-0.150 mdn_na_ppvth_rt=-0.143 mdn_na_npvth_up=0.227 mdn_na_npvth_dn=0.236
+mdn_nb_ppvth_lt=-0.341 mdn_nb_ppvth_rt=-0.427 mdn_nb_npvth_up=0.894 mdn_nb_npvth_dn=0.053
+mdn_no_ppvth_lt=-1.095 mdn_no_ppvth_rt=-0.078 mdn_no_npvth_up=0.707 mdn_no_npvth_dn=0.022
**

** 33 PUF stage
xi32 gnd net64 net65 ch_32 net66 net67 vdd puf_stage
** Vt parameters of the upper MUX2x1
+mup_inv_ppvth=-0.522 mup_inv_npvth=0.816
+mup_na_ppvth_lt=-0.260 mup_na_ppvth_rt=-0.588 mup_na_npvth_up=0.243 mup_na_npvth_dn=0.061
+mup_nb_ppvth_lt=-0.157 mup_nb_ppvth_rt=-0.401 mup_nb_npvth_up=0.138 mup_nb_npvth_dn=0.434
+mup_no_ppvth_lt=-0.487 mup_no_ppvth_rt=-0.273 mup_no_npvth_up=0.031 mup_no_npvth_dn=0.224

** Vt parameters of the lower MUX2x1
+mdn_inv_ppvth=-0.066 mdn_inv_npvth=0.115
+mdn_na_ppvth_lt=-0.053 mdn_na_ppvth_rt=-0.378 mdn_na_npvth_up=0.881 mdn_na_npvth_dn=0.213
+mdn_nb_ppvth_lt=-0.675 mdn_nb_ppvth_rt=-0.159 mdn_nb_npvth_up=0.327 mdn_nb_npvth_dn=0.147
+mdn_no_ppvth_lt=-0.652 mdn_no_ppvth_rt=-0.723 mdn_no_npvth_up=0.723 mdn_no_npvth_dn=0.157
**

** 34 PUF stage
xi33 gnd net66 net67 ch_33 net68 net69 vdd puf_stage
** Vt parameters of the upper MUX2x1
+mup_inv_ppvth=-0.314 mup_inv_npvth=0.298
+mup_na_ppvth_lt=-0.547 mup_na_ppvth_rt=-0.022 mup_na_npvth_up=0.222 mup_na_npvth_dn=0.056
+mup_nb_ppvth_lt=-0.244 mup_nb_ppvth_rt=-0.952 mup_nb_npvth_up=0.364 mup_nb_npvth_dn=0.226
+mup_no_ppvth_lt=-0.573 mup_no_ppvth_rt=-0.466 mup_no_npvth_up=0.290 mup_no_npvth_dn=0.727

** Vt parameters of the lower MUX2x1
+mdn_inv_ppvth=-0.046 mdn_inv_npvth=0.336
+mdn_na_ppvth_lt=-0.633 mdn_na_ppvth_rt=-0.404 mdn_na_npvth_up=0.581 mdn_na_npvth_dn=0.537
+mdn_nb_ppvth_lt=-0.444 mdn_nb_ppvth_rt=-0.280 mdn_nb_npvth_up=0.201 mdn_nb_npvth_dn=0.655
+mdn_no_ppvth_lt=-0.061 mdn_no_ppvth_rt=-0.038 mdn_no_npvth_up=0.017 mdn_no_npvth_dn=0.542
**

** 35 PUF stage
xi34 gnd net68 net69 ch_34 net70 net71 vdd puf_stage
** Vt parameters of the upper MUX2x1
+mup_inv_ppvth=-0.375 mup_inv_npvth=0.717
+mup_na_ppvth_lt=-0.764 mup_na_ppvth_rt=-0.106 mup_na_npvth_up=0.044 mup_na_npvth_dn=0.626
+mup_nb_ppvth_lt=-0.221 mup_nb_ppvth_rt=-0.490 mup_nb_npvth_up=0.874 mup_nb_npvth_dn=0.225
+mup_no_ppvth_lt=-0.542 mup_no_ppvth_rt=-0.821 mup_no_npvth_up=0.125 mup_no_npvth_dn=0.550

** Vt parameters of the lower MUX2x1
+mdn_inv_ppvth=-0.311 mdn_inv_npvth=0.845
+mdn_na_ppvth_lt=-0.701 mdn_na_ppvth_rt=-0.578 mdn_na_npvth_up=0.022 mdn_na_npvth_dn=0.932
+mdn_nb_ppvth_lt=-0.291 mdn_nb_ppvth_rt=-0.000 mdn_nb_npvth_up=0.393 mdn_nb_npvth_dn=0.100
+mdn_no_ppvth_lt=-0.215 mdn_no_ppvth_rt=-0.254 mdn_no_npvth_up=0.735 mdn_no_npvth_dn=0.204
**

** 36 PUF stage
xi35 gnd net70 net71 ch_35 net72 net73 vdd puf_stage
** Vt parameters of the upper MUX2x1
+mup_inv_ppvth=-0.321 mup_inv_npvth=0.764
+mup_na_ppvth_lt=-0.324 mup_na_ppvth_rt=-0.085 mup_na_npvth_up=0.293 mup_na_npvth_dn=0.443
+mup_nb_ppvth_lt=-0.042 mup_nb_ppvth_rt=-0.048 mup_nb_npvth_up=0.251 mup_nb_npvth_dn=0.021
+mup_no_ppvth_lt=-0.175 mup_no_ppvth_rt=-0.638 mup_no_npvth_up=0.465 mup_no_npvth_dn=0.159

** Vt parameters of the lower MUX2x1
+mdn_inv_ppvth=-0.945 mdn_inv_npvth=0.419
+mdn_na_ppvth_lt=-0.243 mdn_na_ppvth_rt=-1.034 mdn_na_npvth_up=0.188 mdn_na_npvth_dn=0.303
+mdn_nb_ppvth_lt=-0.047 mdn_nb_ppvth_rt=-0.439 mdn_nb_npvth_up=0.256 mdn_nb_npvth_dn=0.722
+mdn_no_ppvth_lt=-0.317 mdn_no_ppvth_rt=-0.090 mdn_no_npvth_up=0.127 mdn_no_npvth_dn=0.472
**

** 37 PUF stage
xi36 gnd net72 net73 ch_36 net74 net75 vdd puf_stage
** Vt parameters of the upper MUX2x1
+mup_inv_ppvth=-0.510 mup_inv_npvth=0.893
+mup_na_ppvth_lt=-0.000 mup_na_ppvth_rt=-0.511 mup_na_npvth_up=0.105 mup_na_npvth_dn=0.115
+mup_nb_ppvth_lt=-0.564 mup_nb_ppvth_rt=-0.216 mup_nb_npvth_up=0.231 mup_nb_npvth_dn=0.307
+mup_no_ppvth_lt=-0.037 mup_no_ppvth_rt=-0.243 mup_no_npvth_up=0.085 mup_no_npvth_dn=0.628
